/*---------------------------------------------------------------------------*\
  =========                 |
  \\      /  F ield         | OpenFOAM: The Open Source CFD Toolbox
   \\    /   O peration     | Website:  https://openfoam.org
    \\  /    A nd           | Version:  12
     \\/     M anipulation  |
\*---------------------------------------------------------------------------*/
/*   Windows 32 and 64 bit porting by blueCAPE: http://www.bluecape.com.pt   *\
|  Based on Windows porting (2.0.x v4) by Symscape: http://www.symscape.com   |
\*---------------------------------------------------------------------------*/
Build  : 12-8e8552546d20
Exec   : D:/Program-Files/blueCFD-Core-2024/ofuser-of12/platforms/mingw_w64Gcc122DPInt32Opt/bin/injectionFoam.exe
Date   : May 28 2026
Time   : 14:13:18
Host   : "SAM1H"
PID    : 11512
I/O    : uncollated
Case   : D:/Open_code_project/injection_mold_flow/dummy_mold_case
nProcs : 1
SigFpe : Enabling floating point exception trapping (FOAM_SIGFPE).
fileModificationChecking : Monitoring run-time modified files using timeStampMaster (fileModificationSkew 10)
allowSystemOperations : Allowing user-supplied system call operations

// * * * * * * * * * * * * * * * * * * * * * * * * * * * * * * * * * * * * * //
Create time

Create mesh for time = 0

Reading field p

Reading field U

Reading field T (Temperature)

Reading field alpha (Volume Fraction)

Reading/calculating face flux field phi

Reading transportProperties

Creating density field rho

Creating viscosity field mu


==========================================
  injectionFoam v1.0 - OpenFOAM 12
  Non-Newtonian Cross-WLF + Tait PVT
==========================================

DILUPBiCGStab:  Solving for alpha, Initial residual = 1, Final residual = 2.5411e-17, No Iterations 1
DILUPBiCGStab:  Solving for Ux, Initial residual = 1, Final residual = 2.77756e-11, No Iterations 1
DILUPBiCGStab:  Solving for Uy, Initial residual = 0.999998, Final residual = 5.10278e-11, No Iterations 1
DILUPBiCGStab:  Solving for Uz, Initial residual = 0.999999, Final residual = 6.05679e-11, No Iterations 1
DICPCG:  Solving for p, Initial residual = 1, Final residual = 0.0292603, No Iterations 16
Time = 1e-05 | residuals: Ux_init = 1 | FilledRatio = 0.0005%

DILUPBiCGStab:  Solving for alpha, Initial residual = 0.000165469, Final residual = 1.95279e-20, No Iterations 1
DILUPBiCGStab:  Solving for Ux, Initial residual = 0.99562, Final residual = 2.01031e-05, No Iterations 1
DILUPBiCGStab:  Solving for Uy, Initial residual = 0.97658, Final residual = 9.10212e-05, No Iterations 1
DILUPBiCGStab:  Solving for Uz, Initial residual = 0.976232, Final residual = 5.74139e-05, No Iterations 1
DICPCG:  Solving for p, Initial residual = 0.450935, Final residual = 0.0207921, No Iterations 15
Time = 2e-05 | residuals: Ux_init = 0.99562 | FilledRatio = 0.000500314%

DILUPBiCGStab:  Solving for alpha, Initial residual = 0.000630976, Final residual = 3.80946e-19, No Iterations 1
DILUPBiCGStab:  Solving for Ux, Initial residual = 0.994503, Final residual = 2.58179e-05, No Iterations 1
DILUPBiCGStab:  Solving for Uy, Initial residual = 0.977346, Final residual = 0.00030048, No Iterations 1
DILUPBiCGStab:  Solving for Uz, Initial residual = 0.976634, Final residual = 3.05167e-05, No Iterations 1
DICPCG:  Solving for p, Initial residual = 0.690387, Final residual = 0.0307516, No Iterations 15
Time = 3e-05 | residuals: Ux_init = 0.994503 | FilledRatio = 0.000501515%

DILUPBiCGStab:  Solving for alpha, Initial residual = 0.00171605, Final residual = 1.40944e-17, No Iterations 1
DILUPBiCGStab:  Solving for Ux, Initial residual = 0.993201, Final residual = 1.55457e-05, No Iterations 1
DILUPBiCGStab:  Solving for Uy, Initial residual = 0.969099, Final residual = 0.000303016, No Iterations 1
DILUPBiCGStab:  Solving for Uz, Initial residual = 0.980719, Final residual = 6.31975e-05, No Iterations 1
DICPCG:  Solving for p, Initial residual = 0.543686, Final residual = 0.0125474, No Iterations 16
Time = 4e-05 | residuals: Ux_init = 0.993201 | FilledRatio = 0.000504791%

DILUPBiCGStab:  Solving for alpha, Initial residual = 0.00401932, Final residual = 3.09743e-16, No Iterations 1
DILUPBiCGStab:  Solving for Ux, Initial residual = 0.982059, Final residual = 1.31088e-05, No Iterations 1
DILUPBiCGStab:  Solving for Uy, Initial residual = 0.965007, Final residual = 0.000264183, No Iterations 1
DILUPBiCGStab:  Solving for Uz, Initial residual = 0.974295, Final residual = 1.9313e-05, No Iterations 1
DICPCG:  Solving for p, Initial residual = 0.900757, Final residual = 0.0229746, No Iterations 16
Time = 5e-05 | residuals: Ux_init = 0.982059 | FilledRatio = 0.000512532%

DILUPBiCGStab:  Solving for alpha, Initial residual = 0.00859745, Final residual = 2.91193e-15, No Iterations 1
DILUPBiCGStab:  Solving for Ux, Initial residual = 0.987935, Final residual = 7.36481e-06, No Iterations 1
DILUPBiCGStab:  Solving for Uy, Initial residual = 0.968609, Final residual = 0.000215353, No Iterations 1
DILUPBiCGStab:  Solving for Uz, Initial residual = 0.982206, Final residual = 3.05795e-05, No Iterations 1
DICPCG:  Solving for p, Initial residual = 0.7104, Final residual = 0.0178305, No Iterations 16
Time = 6e-05 | residuals: Ux_init = 0.987935 | FilledRatio = 0.000529422%

DILUPBiCGStab:  Solving for alpha, Initial residual = 0.017271, Final residual = 3.29576e-14, No Iterations 1
DILUPBiCGStab:  Solving for Ux, Initial residual = 0.971451, Final residual = 4.69824e-06, No Iterations 1
DILUPBiCGStab:  Solving for Uy, Initial residual = 0.975522, Final residual = 0.000178033, No Iterations 1
DILUPBiCGStab:  Solving for Uz, Initial residual = 0.980343, Final residual = 1.13899e-05, No Iterations 1
DICPCG:  Solving for p, Initial residual = 0.833763, Final residual = 0.021568, No Iterations 16
Time = 7e-05 | residuals: Ux_init = 0.971451 | FilledRatio = 0.000564778%

DILUPBiCGStab:  Solving for alpha, Initial residual = 0.0332874, Final residual = 2.30442e-13, No Iterations 1
DILUPBiCGStab:  Solving for Ux, Initial residual = 0.984422, Final residual = 2.60204e-06, No Iterations 1
DILUPBiCGStab:  Solving for Uy, Initial residual = 0.97951, Final residual = 0.000181556, No Iterations 1
DILUPBiCGStab:  Solving for Uz, Initial residual = 0.980893, Final residual = 2.31555e-05, No Iterations 1
DICPCG:  Solving for p, Initial residual = 0.782238, Final residual = 0.020159, No Iterations 16
Time = 8e-05 | residuals: Ux_init = 0.984422 | FilledRatio = 0.000638678%

DILUPBiCGStab:  Solving for alpha, Initial residual = 0.0595606, Final residual = 3.42788e-12, No Iterations 1
DILUPBiCGStab:  Solving for Ux, Initial residual = 0.936417, Final residual = 4.63527e-10, No Iterations 1
DILUPBiCGStab:  Solving for Uy, Initial residual = 0.0020514, Final residual = 8.92995e-07, No Iterations 1
DILUPBiCGStab:  Solving for Uz, Initial residual = 0.000994927, Final residual = 3.38224e-07, No Iterations 1
DICPCG:  Solving for p, Initial residual = 1, Final residual = 0.0254285, No Iterations 16
Time = 9e-05 | residuals: Ux_init = 0.936417 | FilledRatio = 0.000792383%

DILUPBiCGStab:  Solving for alpha, Initial residual = 0.054185, Final residual = 1.34771e-11, No Iterations 1
DILUPBiCGStab:  Solving for Ux, Initial residual = 0.985609, Final residual = 3.33293e-07, No Iterations 1
DILUPBiCGStab:  Solving for Uy, Initial residual = 0.980977, Final residual = 0.000208906, No Iterations 1
DILUPBiCGStab:  Solving for Uz, Initial residual = 0.981326, Final residual = 3.64706e-05, No Iterations 1
DICPCG:  Solving for p, Initial residual = 0.729706, Final residual = 0.0188216, No Iterations 16
Time = 0.0001 | residuals: Ux_init = 0.985609 | FilledRatio = 0.000964877%

DILUPBiCGStab:  Solving for alpha, Initial residual = 0.0579163, Final residual = 7.05508e-11, No Iterations 1
DILUPBiCGStab:  Solving for Ux, Initial residual = 0.842758, Final residual = 3.48403e-09, No Iterations 1
DILUPBiCGStab:  Solving for Uy, Initial residual = 0.0031615, Final residual = 2.2004e-06, No Iterations 1
DILUPBiCGStab:  Solving for Uz, Initial residual = 0.00149678, Final residual = 1.16537e-06, No Iterations 1
DICPCG:  Solving for p, Initial residual = 1, Final residual = 0.0248985, No Iterations 16
Time = 0.00011 | residuals: Ux_init = 0.842758 | FilledRatio = 0.00119027%

DILUPBiCGStab:  Solving for alpha, Initial residual = 0.052881, Final residual = 1.20534e-10, No Iterations 1
DILUPBiCGStab:  Solving for Ux, Initial residual = 0.993935, Final residual = 9.70615e-07, No Iterations 1
DILUPBiCGStab:  Solving for Uy, Initial residual = 0.992508, Final residual = 0.000313293, No Iterations 1
DILUPBiCGStab:  Solving for Uz, Initial residual = 0.995102, Final residual = 6.85074e-05, No Iterations 1
DICPCG:  Solving for p, Initial residual = 0.580139, Final residual = 0.0288966, No Iterations 15
Time = 0.00012 | residuals: Ux_init = 0.993935 | FilledRatio = 0.00144278%

DILUPBiCGStab:  Solving for alpha, Initial residual = 0.128372, Final residual = 9.18876e-10, No Iterations 1
DILUPBiCGStab:  Solving for Ux, Initial residual = 0.845252, Final residual = 4.56038e-08, No Iterations 1
DILUPBiCGStab:  Solving for Uy, Initial residual = 0.00570423, Final residual = 7.3297e-06, No Iterations 1
DILUPBiCGStab:  Solving for Uz, Initial residual = 0.00228653, Final residual = 3.16788e-06, No Iterations 1
DICPCG:  Solving for p, Initial residual = 1, Final residual = 0.0466662, No Iterations 15
Time = 0.00013 | residuals: Ux_init = 0.845252 | FilledRatio = 0.00159368%

DILUPBiCGStab:  Solving for alpha, Initial residual = 0.125074, Final residual = 1.26229e-09, No Iterations 1
DILUPBiCGStab:  Solving for Ux, Initial residual = 0.993344, Final residual = 4.79409e-06, No Iterations 1
DILUPBiCGStab:  Solving for Uy, Initial residual = 0.99308, Final residual = 0.000386529, No Iterations 1
DILUPBiCGStab:  Solving for Uz, Initial residual = 0.998591, Final residual = 9.09212e-05, No Iterations 1
DICPCG:  Solving for p, Initial residual = 0.594306, Final residual = 0.0293616, No Iterations 15
Time = 0.00014 | residuals: Ux_init = 0.993344 | FilledRatio = 0.0018858%

DILUPBiCGStab:  Solving for alpha, Initial residual = 0.246846, Final residual = 4.03431e-08, No Iterations 1
DILUPBiCGStab:  Solving for Ux, Initial residual = 0.842828, Final residual = 4.93718e-07, No Iterations 1
DILUPBiCGStab:  Solving for Uy, Initial residual = 0.00958089, Final residual = 3.72144e-05, No Iterations 1
DILUPBiCGStab:  Solving for Uz, Initial residual = 0.00328133, Final residual = 1.36482e-05, No Iterations 1
DICPCG:  Solving for p, Initial residual = 1, Final residual = 0.0436518, No Iterations 15
Time = 0.00015 | residuals: Ux_init = 0.842828 | FilledRatio = 0.00376722%

DILUPBiCGStab:  Solving for alpha, Initial residual = 0.149638, Final residual = 1.60517e-08, No Iterations 1
DILUPBiCGStab:  Solving for Ux, Initial residual = 0.994028, Final residual = 2.23288e-05, No Iterations 1
DILUPBiCGStab:  Solving for Uy, Initial residual = 0.979003, Final residual = 0.00237213, No Iterations 1
DILUPBiCGStab:  Solving for Uz, Initial residual = 0.996, Final residual = 0.000165615, No Iterations 1
DICPCG:  Solving for p, Initial residual = 0.589354, Final residual = 0.0205104, No Iterations 16
Time = 0.00016 | residuals: Ux_init = 0.994028 | FilledRatio = 0.00584042%

DILUPBiCGStab:  Solving for alpha, Initial residual = 0.207335, Final residual = 6.2579e-10, No Iterations 1
DILUPBiCGStab:  Solving for Ux, Initial residual = 0.832681, Final residual = 5.189e-06, No Iterations 1
DILUPBiCGStab:  Solving for Uy, Initial residual = 0.0181134, Final residual = 0.000169382, No Iterations 1
DILUPBiCGStab:  Solving for Uz, Initial residual = 0.0118254, Final residual = 0.000136001, No Iterations 1
DICPCG:  Solving for p, Initial residual = 1, Final residual = 0.0395929, No Iterations 16
Time = 0.00017 | residuals: Ux_init = 0.832681 | FilledRatio = 0.0112522%

DILUPBiCGStab:  Solving for alpha, Initial residual = 0.119424, Final residual = 1.2631e-09, No Iterations 1
DILUPBiCGStab:  Solving for Ux, Initial residual = 0.996314, Final residual = 2.45278e-05, No Iterations 1
DILUPBiCGStab:  Solving for Uy, Initial residual = 0.938985, Final residual = 0.00152711, No Iterations 1
DILUPBiCGStab:  Solving for Uz, Initial residual = 0.977806, Final residual = 0.000630592, No Iterations 1
DICPCG:  Solving for p, Initial residual = 0.5612, Final residual = 0.022249, No Iterations 16
Time = 0.00018 | residuals: Ux_init = 0.996314 | FilledRatio = 0.0169733%

DILUPBiCGStab:  Solving for alpha, Initial residual = 0.127077, Final residual = 6.53118e-09, No Iterations 1
DILUPBiCGStab:  Solving for Ux, Initial residual = 0.82191, Final residual = 9.66612e-06, No Iterations 1
DILUPBiCGStab:  Solving for Uy, Initial residual = 0.0187276, Final residual = 0.000215539, No Iterations 1
DILUPBiCGStab:  Solving for Uz, Initial residual = 0.0196921, Final residual = 0.000302447, No Iterations 1
DICPCG:  Solving for p, Initial residual = 1, Final residual = 0.0408259, No Iterations 16
Time = 0.00019 | residuals: Ux_init = 0.82191 | FilledRatio = 0.0263534%

DILUPBiCGStab:  Solving for alpha, Initial residual = 0.0906698, Final residual = 4.62054e-09, No Iterations 1
DILUPBiCGStab:  Solving for Ux, Initial residual = 0.996624, Final residual = 5.55562e-05, No Iterations 1
DILUPBiCGStab:  Solving for Uy, Initial residual = 0.905397, Final residual = 0.00270389, No Iterations 1
DILUPBiCGStab:  Solving for Uz, Initial residual = 0.967743, Final residual = 0.00137211, No Iterations 1
DICPCG:  Solving for p, Initial residual = 0.559699, Final residual = 0.0226383, No Iterations 16
Time = 0.0002 | residuals: Ux_init = 0.996624 | FilledRatio = 0.0364091%

DILUPBiCGStab:  Solving for alpha, Initial residual = 0.104802, Final residual = 9.68444e-09, No Iterations 1
DILUPBiCGStab:  Solving for Ux, Initial residual = 0.808349, Final residual = 1.40381e-05, No Iterations 1
DILUPBiCGStab:  Solving for Uy, Initial residual = 0.0191768, Final residual = 0.000225922, No Iterations 1
DILUPBiCGStab:  Solving for Uz, Initial residual = 0.0238719, Final residual = 0.000398547, No Iterations 1
DICPCG:  Solving for p, Initial residual = 1, Final residual = 0.039864, No Iterations 16
Time = 0.00021 | residuals: Ux_init = 0.808349 | FilledRatio = 0.052623%

DILUPBiCGStab:  Solving for alpha, Initial residual = 0.078986, Final residual = 7.1654e-09, No Iterations 1
DILUPBiCGStab:  Solving for Ux, Initial residual = 0.997154, Final residual = 4.28887e-05, No Iterations 1
DILUPBiCGStab:  Solving for Uy, Initial residual = 0.908162, Final residual = 0.00379228, No Iterations 1
DILUPBiCGStab:  Solving for Uz, Initial residual = 0.940837, Final residual = 0.00257559, No Iterations 1
DICPCG:  Solving for p, Initial residual = 0.551896, Final residual = 0.0202834, No Iterations 15
Time = 0.00022 | residuals: Ux_init = 0.997154 | FilledRatio = 0.0697015%

DILUPBiCGStab:  Solving for alpha, Initial residual = 0.0801046, Final residual = 1.16876e-08, No Iterations 1
DILUPBiCGStab:  Solving for Ux, Initial residual = 0.800672, Final residual = 1.57861e-05, No Iterations 1
DILUPBiCGStab:  Solving for Uy, Initial residual = 0.0199734, Final residual = 0.000304428, No Iterations 1
DILUPBiCGStab:  Solving for Uz, Initial residual = 0.0218841, Final residual = 0.000386776, No Iterations 1
DICPCG:  Solving for p, Initial residual = 1, Final residual = 0.0427755, No Iterations 15
Time = 0.00023 | residuals: Ux_init = 0.800672 | FilledRatio = 0.0925773%

DILUPBiCGStab:  Solving for alpha, Initial residual = 0.062774, Final residual = 8.392e-09, No Iterations 1
DILUPBiCGStab:  Solving for Ux, Initial residual = 0.997069, Final residual = 4.58164e-05, No Iterations 1
DILUPBiCGStab:  Solving for Uy, Initial residual = 0.871932, Final residual = 0.00236704, No Iterations 1
DILUPBiCGStab:  Solving for Uz, Initial residual = 0.923596, Final residual = 0.00198046, No Iterations 1
DICPCG:  Solving for p, Initial residual = 0.553657, Final residual = 0.0149132, No Iterations 15
Time = 0.00024 | residuals: Ux_init = 0.997069 | FilledRatio = 0.115884%

DILUPBiCGStab:  Solving for alpha, Initial residual = 0.0604401, Final residual = 6.12488e-09, No Iterations 1
DILUPBiCGStab:  Solving for Ux, Initial residual = 0.790792, Final residual = 1.8544e-05, No Iterations 1
DILUPBiCGStab:  Solving for Uy, Initial residual = 0.0147399, Final residual = 0.000269331, No Iterations 1
DILUPBiCGStab:  Solving for Uz, Initial residual = 0.0203844, Final residual = 0.000442852, No Iterations 1
DICPCG:  Solving for p, Initial residual = 1, Final residual = 0.0462566, No Iterations 15
Time = 0.00025 | residuals: Ux_init = 0.790792 | FilledRatio = 0.143837%

DILUPBiCGStab:  Solving for alpha, Initial residual = 0.0495333, Final residual = 4.60315e-09, No Iterations 1
DILUPBiCGStab:  Solving for Ux, Initial residual = 0.99642, Final residual = 3.08025e-05, No Iterations 1
DILUPBiCGStab:  Solving for Uy, Initial residual = 0.812529, Final residual = 0.00563518, No Iterations 1
DILUPBiCGStab:  Solving for Uz, Initial residual = 0.896252, Final residual = 0.000473491, No Iterations 1
DICPCG:  Solving for p, Initial residual = 0.540483, Final residual = 0.0137253, No Iterations 15
Time = 0.00026 | residuals: Ux_init = 0.99642 | FilledRatio = 0.17187%

DILUPBiCGStab:  Solving for alpha, Initial residual = 0.0437995, Final residual = 2.8081e-09, No Iterations 1
DILUPBiCGStab:  Solving for Ux, Initial residual = 0.778766, Final residual = 1.76469e-05, No Iterations 1
DILUPBiCGStab:  Solving for Uy, Initial residual = 0.0260599, Final residual = 0.00044663, No Iterations 1
DILUPBiCGStab:  Solving for Uz, Initial residual = 0.0184464, Final residual = 0.00043317, No Iterations 1
DICPCG:  Solving for p, Initial residual = 1, Final residual = 0.0372205, No Iterations 15
Time = 0.00027 | residuals: Ux_init = 0.778766 | FilledRatio = 0.20123%

DILUPBiCGStab:  Solving for alpha, Initial residual = 0.0377685, Final residual = 2.16767e-09, No Iterations 1
DILUPBiCGStab:  Solving for Ux, Initial residual = 0.996819, Final residual = 4.14297e-05, No Iterations 1
DILUPBiCGStab:  Solving for Uy, Initial residual = 0.87497, Final residual = 0.00474836, No Iterations 1
DILUPBiCGStab:  Solving for Uz, Initial residual = 0.893629, Final residual = 0.000924807, No Iterations 1
DICPCG:  Solving for p, Initial residual = 0.53739, Final residual = 0.0153457, No Iterations 15
Time = 0.00028 | residuals: Ux_init = 0.996819 | FilledRatio = 0.230604%

DILUPBiCGStab:  Solving for alpha, Initial residual = 0.036148, Final residual = 3.13548e-09, No Iterations 1
DILUPBiCGStab:  Solving for Ux, Initial residual = 0.768756, Final residual = 2.20531e-05, No Iterations 1
DILUPBiCGStab:  Solving for Uy, Initial residual = 0.0438497, Final residual = 0.000734815, No Iterations 1
DILUPBiCGStab:  Solving for Uz, Initial residual = 0.0181518, Final residual = 0.000428528, No Iterations 1
DICPCG:  Solving for p, Initial residual = 1, Final residual = 0.0355541, No Iterations 15
Time = 0.00029 | residuals: Ux_init = 0.768756 | FilledRatio = 0.262685%

DILUPBiCGStab:  Solving for alpha, Initial residual = 0.0318097, Final residual = 2.42217e-09, No Iterations 1
DILUPBiCGStab:  Solving for Ux, Initial residual = 0.99652, Final residual = 2.56228e-05, No Iterations 1
DILUPBiCGStab:  Solving for Uy, Initial residual = 0.901399, Final residual = 0.00481989, No Iterations 1
DILUPBiCGStab:  Solving for Uz, Initial residual = 0.89336, Final residual = 0.000948855, No Iterations 1
DICPCG:  Solving for p, Initial residual = 0.530635, Final residual = 0.0179322, No Iterations 15
Time = 0.0003 | residuals: Ux_init = 0.99652 | FilledRatio = 0.294592%

DILUPBiCGStab:  Solving for alpha, Initial residual = 0.0272111, Final residual = 1.79758e-08, No Iterations 1
DILUPBiCGStab:  Solving for Ux, Initial residual = 0.76826, Final residual = 2.0891e-05, No Iterations 1
DILUPBiCGStab:  Solving for Uy, Initial residual = 0.0542126, Final residual = 0.000823527, No Iterations 1
DILUPBiCGStab:  Solving for Uz, Initial residual = 0.0195947, Final residual = 0.000458713, No Iterations 1
DICPCG:  Solving for p, Initial residual = 1, Final residual = 0.0354544, No Iterations 15
Time = 0.00031 | residuals: Ux_init = 0.76826 | FilledRatio = 0.324948%

DILUPBiCGStab:  Solving for alpha, Initial residual = 0.0248801, Final residual = 2.16097e-08, No Iterations 1
DILUPBiCGStab:  Solving for Ux, Initial residual = 0.996698, Final residual = 5.87971e-05, No Iterations 1
DILUPBiCGStab:  Solving for Uy, Initial residual = 0.885125, Final residual = 0.00403799, No Iterations 1
DILUPBiCGStab:  Solving for Uz, Initial residual = 0.899609, Final residual = 0.000951763, No Iterations 1
DICPCG:  Solving for p, Initial residual = 0.542703, Final residual = 0.0193802, No Iterations 15
Time = 0.00032 | residuals: Ux_init = 0.996698 | FilledRatio = 0.355393%

DILUPBiCGStab:  Solving for alpha, Initial residual = 0.0249498, Final residual = 5.23647e-08, No Iterations 1
DILUPBiCGStab:  Solving for Ux, Initial residual = 0.766664, Final residual = 3.25622e-05, No Iterations 1
DILUPBiCGStab:  Solving for Uy, Initial residual = 0.0586288, Final residual = 0.000826196, No Iterations 1
DILUPBiCGStab:  Solving for Uz, Initial residual = 0.0193508, Final residual = 0.000415105, No Iterations 1
DICPCG:  Solving for p, Initial residual = 1, Final residual = 0.0367904, No Iterations 15
Time = 0.00033 | residuals: Ux_init = 0.766664 | FilledRatio = 0.388686%

DILUPBiCGStab:  Solving for alpha, Initial residual = 0.0226665, Final residual = 6.25919e-08, No Iterations 1
DILUPBiCGStab:  Solving for Ux, Initial residual = 0.996794, Final residual = 6.90942e-05, No Iterations 1
DILUPBiCGStab:  Solving for Uy, Initial residual = 0.876322, Final residual = 0.00284353, No Iterations 1
DILUPBiCGStab:  Solving for Uz, Initial residual = 0.901158, Final residual = 0.000996628, No Iterations 1
DICPCG:  Solving for p, Initial residual = 0.546785, Final residual = 0.0190943, No Iterations 15
Time = 0.00034 | residuals: Ux_init = 0.996794 | FilledRatio = 0.421574%

DILUPBiCGStab:  Solving for alpha, Initial residual = 0.0188046, Final residual = 7.8213e-08, No Iterations 1
DILUPBiCGStab:  Solving for Ux, Initial residual = 0.770326, Final residual = 2.80309e-05, No Iterations 1
DILUPBiCGStab:  Solving for Uy, Initial residual = 0.0393564, Final residual = 0.000584287, No Iterations 1
DILUPBiCGStab:  Solving for Uz, Initial residual = 0.0175969, Final residual = 0.000387217, No Iterations 1
DICPCG:  Solving for p, Initial residual = 1, Final residual = 0.0356865, No Iterations 15
Time = 0.00035 | residuals: Ux_init = 0.770326 | FilledRatio = 0.450943%

DILUPBiCGStab:  Solving for alpha, Initial residual = 0.017946, Final residual = 8.46587e-08, No Iterations 1
DILUPBiCGStab:  Solving for Ux, Initial residual = 0.997032, Final residual = 0.000148771, No Iterations 1
DILUPBiCGStab:  Solving for Uy, Initial residual = 0.866193, Final residual = 0.00420857, No Iterations 1
DILUPBiCGStab:  Solving for Uz, Initial residual = 0.896533, Final residual = 0.000866176, No Iterations 1
DICPCG:  Solving for p, Initial residual = 0.561491, Final residual = 0.019369, No Iterations 15
Time = 0.00036 | residuals: Ux_init = 0.997032 | FilledRatio = 0.480822%

DILUPBiCGStab:  Solving for alpha, Initial residual = 0.0203116, Final residual = 1.4932e-07, No Iterations 1
DILUPBiCGStab:  Solving for Ux, Initial residual = 0.761428, Final residual = 5.56762e-05, No Iterations 1
DILUPBiCGStab:  Solving for Uy, Initial residual = 0.036662, Final residual = 0.000555299, No Iterations 1
DILUPBiCGStab:  Solving for Uz, Initial residual = 0.0153105, Final residual = 0.000350008, No Iterations 1
DICPCG:  Solving for p, Initial residual = 1, Final residual = 0.0374964, No Iterations 15
Time = 0.00037 | residuals: Ux_init = 0.761428 | FilledRatio = 0.516899%

DILUPBiCGStab:  Solving for alpha, Initial residual = 0.0183535, Final residual = 1.54589e-07, No Iterations 1
DILUPBiCGStab:  Solving for Ux, Initial residual = 0.997259, Final residual = 0.000226706, No Iterations 1
DILUPBiCGStab:  Solving for Uy, Initial residual = 0.823825, Final residual = 0.00227566, No Iterations 1
DILUPBiCGStab:  Solving for Uz, Initial residual = 0.897737, Final residual = 0.000775161, No Iterations 1
DICPCG:  Solving for p, Initial residual = 0.597511, Final residual = 0.0186617, No Iterations 15
Time = 0.00038 | residuals: Ux_init = 0.997259 | FilledRatio = 0.551786%

DILUPBiCGStab:  Solving for alpha, Initial residual = 0.0128531, Final residual = 1.02517e-07, No Iterations 1
DILUPBiCGStab:  Solving for Ux, Initial residual = 0.777755, Final residual = 7.35216e-05, No Iterations 1
DILUPBiCGStab:  Solving for Uy, Initial residual = 0.0246988, Final residual = 0.000353644, No Iterations 1
DILUPBiCGStab:  Solving for Uz, Initial residual = 0.0122137, Final residual = 0.000276333, No Iterations 1
DICPCG:  Solving for p, Initial residual = 1, Final residual = 0.032975, No Iterations 15
Time = 0.00039 | residuals: Ux_init = 0.777755 | FilledRatio = 0.577655%

DILUPBiCGStab:  Solving for alpha, Initial residual = 0.0132408, Final residual = 1.17447e-07, No Iterations 1
DILUPBiCGStab:  Solving for Ux, Initial residual = 0.997463, Final residual = 0.000487745, No Iterations 1
DILUPBiCGStab:  Solving for Uy, Initial residual = 0.833849, Final residual = 0.00414861, No Iterations 1
DILUPBiCGStab:  Solving for Uz, Initial residual = 0.898946, Final residual = 0.000751749, No Iterations 1
DICPCG:  Solving for p, Initial residual = 0.629239, Final residual = 0.0155828, No Iterations 15
Time = 0.0004 | residuals: Ux_init = 0.997463 | FilledRatio = 0.605537%

DILUPBiCGStab:  Solving for alpha, Initial residual = 0.0197718, Final residual = 3.01168e-07, No Iterations 1
DILUPBiCGStab:  Solving for Ux, Initial residual = 0.97788, Final residual = 0.009644, No Iterations 1
DILUPBiCGStab:  Solving for Uy, Initial residual = 0.932595, Final residual = 0.00996313, No Iterations 1
DILUPBiCGStab:  Solving for Uz, Initial residual = 0.661235, Final residual = 0.00173676, No Iterations 1
DICPCG:  Solving for p, Initial residual = 0.997773, Final residual = 0.0420789, No Iterations 14
Time = 0.00041 | residuals: Ux_init = 0.97788 | FilledRatio = 0.649456%

DILUPBiCGStab:  Solving for alpha, Initial residual = 0.0152647, Final residual = 3.46419e-09, No Iterations 1
DILUPBiCGStab:  Solving for Ux, Initial residual = 0.873446, Final residual = 0.000163495, No Iterations 1
DILUPBiCGStab:  Solving for Uy, Initial residual = 0.644146, Final residual = 0.000478887, No Iterations 1
DILUPBiCGStab:  Solving for Uz, Initial residual = 0.742633, Final residual = 0.000111456, No Iterations 1
DICPCG:  Solving for p, Initial residual = 0.721868, Final residual = 0.0122994, No Iterations 16
Time = 0.00042 | residuals: Ux_init = 0.873446 | FilledRatio = 0.614519%

DILUPBiCGStab:  Solving for alpha, Initial residual = 0.00359504, Final residual = 6.06269e-10, No Iterations 1
DILUPBiCGStab:  Solving for Ux, Initial residual = 0.995638, Final residual = 0.00342631, No Iterations 1
DILUPBiCGStab:  Solving for Uy, Initial residual = 0.981519, Final residual = 0.00180704, No Iterations 1
DILUPBiCGStab:  Solving for Uz, Initial residual = 0.888632, Final residual = 0.00127886, No Iterations 1
DICPCG:  Solving for p, Initial residual = 0.758058, Final residual = 0.0194207, No Iterations 14
Time = 0.00043 | residuals: Ux_init = 0.995638 | FilledRatio = 0.611318%

DILUPBiCGStab:  Solving for alpha, Initial residual = 0.0428487, Final residual = 3.87091e-07, No Iterations 1
DILUPBiCGStab:  Solving for Ux, Initial residual = 0.999352, Final residual = 0.00786976, No Iterations 1
DILUPBiCGStab:  Solving for Uy, Initial residual = 0.942715, Final residual = 0.0253676, No Iterations 1
DILUPBiCGStab:  Solving for Uz, Initial residual = 0.915564, Final residual = 0.00357112, No Iterations 1
DICPCG:  Solving for p, Initial residual = 0.915881, Final residual = 0.0265921, No Iterations 14
Time = 0.00044 | residuals: Ux_init = 0.999352 | FilledRatio = 0.709512%

DILUPBiCGStab:  Solving for alpha, Initial residual = 0.24707, Final residual = 3.38964e-07, No Iterations 1
DILUPBiCGStab:  Solving for Ux, Initial residual = 1, Final residual = 2.14541e-05, No Iterations 1
DILUPBiCGStab:  Solving for Uy, Initial residual = 0.0628022, Final residual = 0.00118071, No Iterations 1
DILUPBiCGStab:  Solving for Uz, Initial residual = 0.0346318, Final residual = 0.000470419, No Iterations 1
DICPCG:  Solving for p, Initial residual = 1, Final residual = 0.0400926, No Iterations 15
Time = 0.00045 | residuals: Ux_init = 1 | FilledRatio = 0.206102%

DILUPBiCGStab:  Solving for alpha, Initial residual = 0.073802, Final residual = 3.65524e-08, No Iterations 1
DILUPBiCGStab:  Solving for Ux, Initial residual = 0.991641, Final residual = 0.00134648, No Iterations 1
DILUPBiCGStab:  Solving for Uy, Initial residual = 0.994639, Final residual = 0.00215257, No Iterations 1
DILUPBiCGStab:  Solving for Uz, Initial residual = 0.896706, Final residual = 0.0020877, No Iterations 1
DICPCG:  Solving for p, Initial residual = 0.728949, Final residual = 0.0358058, No Iterations 14
Time = 0.00046 | residuals: Ux_init = 0.991641 | FilledRatio = 0.155837%

DILUPBiCGStab:  Solving for alpha, Initial residual = 0.14678, Final residual = 6.8002e-08, No Iterations 1
DILUPBiCGStab:  Solving for Ux, Initial residual = 0.81424, Final residual = 0.000191438, No Iterations 1
DILUPBiCGStab:  Solving for Uy, Initial residual = 0.0361526, Final residual = 0.000803974, No Iterations 1
DILUPBiCGStab:  Solving for Uz, Initial residual = 0.0176017, Final residual = 0.000290031, No Iterations 1
DICPCG:  Solving for p, Initial residual = 1, Final residual = 0.0222856, No Iterations 16
Time = 0.00047 | residuals: Ux_init = 0.81424 | FilledRatio = 0.0855271%

DILUPBiCGStab:  Solving for alpha, Initial residual = 0.158579, Final residual = 8.22425e-08, No Iterations 1
DILUPBiCGStab:  Solving for Ux, Initial residual = 0.990106, Final residual = 0.00414406, No Iterations 1
DILUPBiCGStab:  Solving for Uy, Initial residual = 0.965466, Final residual = 0.010043, No Iterations 1
DILUPBiCGStab:  Solving for Uz, Initial residual = 0.864153, Final residual = 0.00148339, No Iterations 1
DICPCG:  Solving for p, Initial residual = 0.845359, Final residual = 0.0351054, No Iterations 14
Time = 0.00048 | residuals: Ux_init = 0.990106 | FilledRatio = 0.0527186%

DILUPBiCGStab:  Solving for alpha, Initial residual = 0.456148, Final residual = 5.9722e-12, No Iterations 1
DILUPBiCGStab:  Solving for Ux, Initial residual = 1, Final residual = 7.75404e-06, No Iterations 1
DILUPBiCGStab:  Solving for Uy, Initial residual = 0.0456359, Final residual = 0.000700368, No Iterations 1
DILUPBiCGStab:  Solving for Uz, Initial residual = 0.0177495, Final residual = 0.000230105, No Iterations 1
DICPCG:  Solving for p, Initial residual = 1, Final residual = 0.0466634, No Iterations 16
Time = 0.00049 | residuals: Ux_init = 1 | FilledRatio = 0.0473912%

DILUPBiCGStab:  Solving for alpha, Initial residual = 0.226244, Final residual = 3.20527e-07, No Iterations 1
DILUPBiCGStab:  Solving for Ux, Initial residual = 0.989407, Final residual = 0.005678, No Iterations 1
DILUPBiCGStab:  Solving for Uy, Initial residual = 0.986654, Final residual = 0.00722568, No Iterations 1
DILUPBiCGStab:  Solving for Uz, Initial residual = 0.890774, Final residual = 0.00401409, No Iterations 1
DICPCG:  Solving for p, Initial residual = 0.909867, Final residual = 0.0297211, No Iterations 17
Time = 0.0005 | residuals: Ux_init = 0.989407 | FilledRatio = 0.0469086%

DILUPBiCGStab:  Solving for alpha, Initial residual = 0.317905, Final residual = 6.05378e-07, No Iterations 1
DILUPBiCGStab:  Solving for Ux, Initial residual = 0.941835, Final residual = 0.0101889, No Iterations 1
DILUPBiCGStab:  Solving for Uy, Initial residual = 0.707876, Final residual = 0.00457472, No Iterations 1
DILUPBiCGStab:  Solving for Uz, Initial residual = 0.232537, Final residual = 0.00183414, No Iterations 1
DICPCG:  Solving for p, Initial residual = 0.950286, Final residual = 0.027474, No Iterations 16
Time = 0.00051 | residuals: Ux_init = 0.941835 | FilledRatio = 0.0464779%

DILUPBiCGStab:  Solving for alpha, Initial residual = 0.17431, Final residual = 2.67094e-07, No Iterations 1
DILUPBiCGStab:  Solving for Ux, Initial residual = 0.996232, Final residual = 0.00443345, No Iterations 1
DILUPBiCGStab:  Solving for Uy, Initial residual = 0.98011, Final residual = 0.00646414, No Iterations 1
DILUPBiCGStab:  Solving for Uz, Initial residual = 0.87244, Final residual = 0.00128481, No Iterations 1
DICPCG:  Solving for p, Initial residual = 0.898107, Final residual = 0.0212487, No Iterations 16
Time = 0.00052 | residuals: Ux_init = 0.996232 | FilledRatio = 0.058587%

DILUPBiCGStab:  Solving for alpha, Initial residual = 0.53085, Final residual = 5.53411e-12, No Iterations 1
DILUPBiCGStab:  Solving for Ux, Initial residual = 0.817667, Final residual = 0.000219847, No Iterations 1
DILUPBiCGStab:  Solving for Uy, Initial residual = 0.0444009, Final residual = 0.000650177, No Iterations 1
DILUPBiCGStab:  Solving for Uz, Initial residual = 0.0291944, Final residual = 0.000482531, No Iterations 1
DICPCG:  Solving for p, Initial residual = 1, Final residual = 0.0492294, No Iterations 16
Time = 0.00053 | residuals: Ux_init = 0.817667 | FilledRatio = 0.0454556%

DILUPBiCGStab:  Solving for alpha, Initial residual = 0.201164, Final residual = 2.20356e-12, No Iterations 1
DILUPBiCGStab:  Solving for Ux, Initial residual = 0.996448, Final residual = 0.00131912, No Iterations 1
DILUPBiCGStab:  Solving for Uy, Initial residual = 0.98672, Final residual = 0.00338742, No Iterations 1
DILUPBiCGStab:  Solving for Uz, Initial residual = 0.857143, Final residual = 0.000821417, No Iterations 1
DICPCG:  Solving for p, Initial residual = 0.722841, Final residual = 0.0342255, No Iterations 16
Time = 0.00054 | residuals: Ux_init = 0.996448 | FilledRatio = 0.0593832%

DILUPBiCGStab:  Solving for alpha, Initial residual = 0.241779, Final residual = 2.68147e-10, No Iterations 1
DILUPBiCGStab:  Solving for Ux, Initial residual = 0.889252, Final residual = 0.00606066, No Iterations 1
DILUPBiCGStab:  Solving for Uy, Initial residual = 0.782459, Final residual = 0.00165126, No Iterations 1
DILUPBiCGStab:  Solving for Uz, Initial residual = 0.334118, Final residual = 0.000403497, No Iterations 1
DICPCG:  Solving for p, Initial residual = 0.873556, Final residual = 0.0259043, No Iterations 17
Time = 0.00055 | residuals: Ux_init = 0.889252 | FilledRatio = 0.10868%

DILUPBiCGStab:  Solving for alpha, Initial residual = 0.103538, Final residual = 1.59808e-07, No Iterations 1
DILUPBiCGStab:  Solving for Ux, Initial residual = 0.969139, Final residual = 0.000625851, No Iterations 1
DILUPBiCGStab:  Solving for Uy, Initial residual = 0.729591, Final residual = 0.00566247, No Iterations 1
DILUPBiCGStab:  Solving for Uz, Initial residual = 0.753897, Final residual = 0.00025561, No Iterations 1
DICPCG:  Solving for p, Initial residual = 0.988589, Final residual = 0.046954, No Iterations 15
Time = 0.00056 | residuals: Ux_init = 0.969139 | FilledRatio = 0.119257%

DILUPBiCGStab:  Solving for alpha, Initial residual = 0.105762, Final residual = 8.16426e-07, No Iterations 1
DILUPBiCGStab:  Solving for Ux, Initial residual = 0.989891, Final residual = 0.00143702, No Iterations 1
DILUPBiCGStab:  Solving for Uy, Initial residual = 0.970204, Final residual = 0.00992915, No Iterations 1
DILUPBiCGStab:  Solving for Uz, Initial residual = 0.73721, Final residual = 0.00479178, No Iterations 1
DICPCG:  Solving for p, Initial residual = 0.905125, Final residual = 0.0393711, No Iterations 10
Time = 0.00057 | residuals: Ux_init = 0.989891 | FilledRatio = 0.15484%

DILUPBiCGStab:  Solving for alpha, Initial residual = 0.0576805, Final residual = 1.5314e-11, No Iterations 1
DILUPBiCGStab:  Solving for Ux, Initial residual = 0.991054, Final residual = 0.00444258, No Iterations 1
DILUPBiCGStab:  Solving for Uy, Initial residual = 0.969754, Final residual = 0.0106052, No Iterations 1
DILUPBiCGStab:  Solving for Uz, Initial residual = 0.884773, Final residual = 0.00168115, No Iterations 1
DICPCG:  Solving for p, Initial residual = 0.950106, Final residual = 0.043787, No Iterations 16
Time = 0.00058 | residuals: Ux_init = 0.991054 | FilledRatio = 0.177041%

DILUPBiCGStab:  Solving for alpha, Initial residual = 0.148784, Final residual = 5.29524e-07, No Iterations 1
DILUPBiCGStab:  Solving for Ux, Initial residual = 0.960621, Final residual = 0.0304081, No Iterations 1
DILUPBiCGStab:  Solving for Uy, Initial residual = 0.845677, Final residual = 0.0254429, No Iterations 1
DILUPBiCGStab:  Solving for Uz, Initial residual = 0.365102, Final residual = 0.00624358, No Iterations 1
DICPCG:  Solving for p, Initial residual = 0.967519, Final residual = 0.0406039, No Iterations 15
Time = 0.00059 | residuals: Ux_init = 0.960621 | FilledRatio = 0.141369%

DILUPBiCGStab:  Solving for alpha, Initial residual = 0.634789, Final residual = 1.21576e-09, No Iterations 1
DILUPBiCGStab:  Solving for Ux, Initial residual = 1, Final residual = 2.08427e-07, No Iterations 1
DILUPBiCGStab:  Solving for Uy, Initial residual = 0.0429942, Final residual = 0.000698727, No Iterations 1
DILUPBiCGStab:  Solving for Uz, Initial residual = 0.0403942, Final residual = 0.00054539, No Iterations 1
DICPCG:  Solving for p, Initial residual = 1, Final residual = 0.0391693, No Iterations 16
Time = 0.0006 | residuals: Ux_init = 1 | FilledRatio = 1.01337%

DILUPBiCGStab:  Solving for alpha, Initial residual = 0.0131069, Final residual = 3.80149e-07, No Iterations 1
DILUPBiCGStab:  Solving for Ux, Initial residual = 0.662754, Final residual = 8.04996e-05, No Iterations 1
DILUPBiCGStab:  Solving for Uy, Initial residual = 0.0438871, Final residual = 0.000706008, No Iterations 1
DILUPBiCGStab:  Solving for Uz, Initial residual = 0.0242598, Final residual = 0.000445366, No Iterations 1
DICPCG:  Solving for p, Initial residual = 1, Final residual = 0.028476, No Iterations 16
Time = 0.00061 | residuals: Ux_init = 0.662754 | FilledRatio = 1.06187%

DILUPBiCGStab:  Solving for alpha, Initial residual = 0.0108756, Final residual = 3.03842e-07, No Iterations 1
DILUPBiCGStab:  Solving for Ux, Initial residual = 0.993837, Final residual = 0.000752155, No Iterations 1
DILUPBiCGStab:  Solving for Uy, Initial residual = 0.964527, Final residual = 0.00322888, No Iterations 1
DILUPBiCGStab:  Solving for Uz, Initial residual = 0.861327, Final residual = 0.000336957, No Iterations 1
DICPCG:  Solving for p, Initial residual = 0.6775, Final residual = 0.0166352, No Iterations 16
Time = 0.00062 | residuals: Ux_init = 0.993837 | FilledRatio = 1.10384%

DILUPBiCGStab:  Solving for alpha, Initial residual = 0.00500578, Final residual = 1.78459e-07, No Iterations 1
DILUPBiCGStab:  Solving for Ux, Initial residual = 0.642837, Final residual = 0.000257248, No Iterations 1
DILUPBiCGStab:  Solving for Uy, Initial residual = 0.0234356, Final residual = 0.000422261, No Iterations 1
DILUPBiCGStab:  Solving for Uz, Initial residual = 0.0109028, Final residual = 0.000203462, No Iterations 1
DICPCG:  Solving for p, Initial residual = 1, Final residual = 0.0219299, No Iterations 15
Time = 0.00063 | residuals: Ux_init = 0.642837 | FilledRatio = 1.12358%

DILUPBiCGStab:  Solving for alpha, Initial residual = 0.0060733, Final residual = 2.2611e-07, No Iterations 1
DILUPBiCGStab:  Solving for Ux, Initial residual = 0.994715, Final residual = 0.00129384, No Iterations 1
DILUPBiCGStab:  Solving for Uy, Initial residual = 0.846164, Final residual = 0.0040979, No Iterations 1
DILUPBiCGStab:  Solving for Uz, Initial residual = 0.873651, Final residual = 0.000324602, No Iterations 1
DICPCG:  Solving for p, Initial residual = 0.73424, Final residual = 0.0240977, No Iterations 14
Time = 0.00064 | residuals: Ux_init = 0.994715 | FilledRatio = 1.14813%

DILUPBiCGStab:  Solving for alpha, Initial residual = 0.0124385, Final residual = 6.80413e-07, No Iterations 1
DILUPBiCGStab:  Solving for Ux, Initial residual = 0.860262, Final residual = 0.00620799, No Iterations 1
DILUPBiCGStab:  Solving for Uy, Initial residual = 0.618731, Final residual = 0.0034725, No Iterations 1
DILUPBiCGStab:  Solving for Uz, Initial residual = 0.0841516, Final residual = 0.000344008, No Iterations 1
DICPCG:  Solving for p, Initial residual = 0.910404, Final residual = 0.0389542, No Iterations 15
Time = 0.00065 | residuals: Ux_init = 0.860262 | FilledRatio = 1.20002%

DILUPBiCGStab:  Solving for alpha, Initial residual = 0.00779779, Final residual = 4.22099e-07, No Iterations 1
DILUPBiCGStab:  Solving for Ux, Initial residual = 0.995815, Final residual = 0.0028109, No Iterations 1
DILUPBiCGStab:  Solving for Uy, Initial residual = 0.958055, Final residual = 0.00617798, No Iterations 1
DILUPBiCGStab:  Solving for Uz, Initial residual = 0.847239, Final residual = 0.000641709, No Iterations 1
DICPCG:  Solving for p, Initial residual = 0.939001, Final residual = 0.0357746, No Iterations 9
Time = 0.00066 | residuals: Ux_init = 0.995815 | FilledRatio = 1.23381%

DILUPBiCGStab:  Solving for alpha, Initial residual = 0.0197059, Final residual = 8.24516e-07, No Iterations 1
DILUPBiCGStab:  Solving for Ux, Initial residual = 0.993738, Final residual = 0.0112042, No Iterations 1
DILUPBiCGStab:  Solving for Uy, Initial residual = 0.985955, Final residual = 0.00731879, No Iterations 1
DILUPBiCGStab:  Solving for Uz, Initial residual = 0.606363, Final residual = 0.00424367, No Iterations 1
DICPCG:  Solving for p, Initial residual = 0.968654, Final residual = 0.0329593, No Iterations 14
Time = 0.00067 | residuals: Ux_init = 0.993738 | FilledRatio = 1.32257%

DILUPBiCGStab:  Solving for alpha, Initial residual = 0.041839, Final residual = 3.10625e-07, No Iterations 1
DILUPBiCGStab:  Solving for Ux, Initial residual = 0.970289, Final residual = 0.0334879, No Iterations 1
DILUPBiCGStab:  Solving for Uy, Initial residual = 0.349072, Final residual = 0.0190984, No Iterations 1
DILUPBiCGStab:  Solving for Uz, Initial residual = 0.0373114, Final residual = 0.00142063, No Iterations 1
DICPCG:  Solving for p, Initial residual = 0.98795, Final residual = 0.0273999, No Iterations 12
Time = 0.00068 | residuals: Ux_init = 0.970289 | FilledRatio = 1.13555%

DILUPBiCGStab:  Solving for alpha, Initial residual = 0.130997, Final residual = 3.81373e-10, No Iterations 1
DILUPBiCGStab:  Solving for Ux, Initial residual = 0.997714, Final residual = 0.00225751, No Iterations 1
DILUPBiCGStab:  Solving for Uy, Initial residual = 0.130969, Final residual = 0.00462173, No Iterations 1
DILUPBiCGStab:  Solving for Uz, Initial residual = 0.0316015, Final residual = 0.00083989, No Iterations 1
DICPCG:  Solving for p, Initial residual = 0.995218, Final residual = 0.0258717, No Iterations 16
Time = 0.00069 | residuals: Ux_init = 0.997714 | FilledRatio = 1.74725%

DILUPBiCGStab:  Solving for alpha, Initial residual = 0.0538416, Final residual = 6.41742e-08, No Iterations 1
DILUPBiCGStab:  Solving for Ux, Initial residual = 0.993334, Final residual = 0.000107205, No Iterations 1
DILUPBiCGStab:  Solving for Uy, Initial residual = 0.04471, Final residual = 0.000885, No Iterations 1
DILUPBiCGStab:  Solving for Uz, Initial residual = 0.0137308, Final residual = 0.000176777, No Iterations 1
DICPCG:  Solving for p, Initial residual = 1, Final residual = 0.0278845, No Iterations 16
Time = 0.0007 | residuals: Ux_init = 0.993334 | FilledRatio = 1.42702%

DILUPBiCGStab:  Solving for alpha, Initial residual = 0.00948241, Final residual = 7.55795e-09, No Iterations 1
DILUPBiCGStab:  Solving for Ux, Initial residual = 0.986072, Final residual = 0.000811499, No Iterations 1
DILUPBiCGStab:  Solving for Uy, Initial residual = 0.98677, Final residual = 0.00627721, No Iterations 1
DILUPBiCGStab:  Solving for Uz, Initial residual = 0.512396, Final residual = 0.000428717, No Iterations 1
DICPCG:  Solving for p, Initial residual = 0.832301, Final residual = 0.0252859, No Iterations 16
Time = 0.00071 | residuals: Ux_init = 0.986072 | FilledRatio = 1.37903%

DILUPBiCGStab:  Solving for alpha, Initial residual = 0.0082427, Final residual = 1.06299e-08, No Iterations 1
DILUPBiCGStab:  Solving for Ux, Initial residual = 0.758369, Final residual = 0.000404544, No Iterations 1
DILUPBiCGStab:  Solving for Uy, Initial residual = 0.0432312, Final residual = 0.000827153, No Iterations 1
DILUPBiCGStab:  Solving for Uz, Initial residual = 0.00630917, Final residual = 0.000123602, No Iterations 1
DICPCG:  Solving for p, Initial residual = 1, Final residual = 0.0272222, No Iterations 16
Time = 0.00072 | residuals: Ux_init = 0.758369 | FilledRatio = 1.33872%

DILUPBiCGStab:  Solving for alpha, Initial residual = 0.0083689, Final residual = 7.54813e-09, No Iterations 1
DILUPBiCGStab:  Solving for Ux, Initial residual = 0.985704, Final residual = 0.00188522, No Iterations 1
DILUPBiCGStab:  Solving for Uy, Initial residual = 0.929515, Final residual = 0.00779951, No Iterations 1
DILUPBiCGStab:  Solving for Uz, Initial residual = 0.72044, Final residual = 0.000277164, No Iterations 1
DICPCG:  Solving for p, Initial residual = 0.845432, Final residual = 0.0283692, No Iterations 16
Time = 0.00073 | residuals: Ux_init = 0.985704 | FilledRatio = 1.29896%

DILUPBiCGStab:  Solving for alpha, Initial residual = 0.0124514, Final residual = 5.69763e-09, No Iterations 1
DILUPBiCGStab:  Solving for Ux, Initial residual = 0.76313, Final residual = 0.000129437, No Iterations 1
DILUPBiCGStab:  Solving for Uy, Initial residual = 0.0328927, Final residual = 0.000618711, No Iterations 1
DILUPBiCGStab:  Solving for Uz, Initial residual = 0.00517251, Final residual = 0.000108602, No Iterations 1
DICPCG:  Solving for p, Initial residual = 1, Final residual = 0.0218868, No Iterations 16
Time = 0.00074 | residuals: Ux_init = 0.76313 | FilledRatio = 1.2418%

DILUPBiCGStab:  Solving for alpha, Initial residual = 0.0106419, Final residual = 1.20455e-08, No Iterations 1
DILUPBiCGStab:  Solving for Ux, Initial residual = 0.987236, Final residual = 0.00080311, No Iterations 1
DILUPBiCGStab:  Solving for Uy, Initial residual = 0.938014, Final residual = 0.0085437, No Iterations 1
DILUPBiCGStab:  Solving for Uz, Initial residual = 0.680769, Final residual = 0.000473156, No Iterations 1
DICPCG:  Solving for p, Initial residual = 0.843607, Final residual = 0.0346376, No Iterations 16
Time = 0.00075 | residuals: Ux_init = 0.987236 | FilledRatio = 1.19505%

DILUPBiCGStab:  Solving for alpha, Initial residual = 0.0107608, Final residual = 1.16616e-08, No Iterations 1
DILUPBiCGStab:  Solving for Ux, Initial residual = 0.685231, Final residual = 0.000232587, No Iterations 1
DILUPBiCGStab:  Solving for Uy, Initial residual = 0.0240172, Final residual = 0.000423712, No Iterations 1
DILUPBiCGStab:  Solving for Uz, Initial residual = 0.00444521, Final residual = 9.69221e-05, No Iterations 1
DICPCG:  Solving for p, Initial residual = 1, Final residual = 0.032668, No Iterations 16
Time = 0.00076 | residuals: Ux_init = 0.685231 | FilledRatio = 1.14957%

DILUPBiCGStab:  Solving for alpha, Initial residual = 0.0104317, Final residual = 2.01019e-08, No Iterations 1
DILUPBiCGStab:  Solving for Ux, Initial residual = 0.986957, Final residual = 0.000946868, No Iterations 1
DILUPBiCGStab:  Solving for Uy, Initial residual = 0.950091, Final residual = 0.00993639, No Iterations 1
DILUPBiCGStab:  Solving for Uz, Initial residual = 0.739335, Final residual = 0.000574607, No Iterations 1
DICPCG:  Solving for p, Initial residual = 0.876863, Final residual = 0.034985, No Iterations 16
Time = 0.00077 | residuals: Ux_init = 0.986957 | FilledRatio = 1.10715%

DILUPBiCGStab:  Solving for alpha, Initial residual = 0.0128322, Final residual = 1.54881e-08, No Iterations 1
DILUPBiCGStab:  Solving for Ux, Initial residual = 0.644768, Final residual = 0.000465733, No Iterations 1
DILUPBiCGStab:  Solving for Uy, Initial residual = 0.0165322, Final residual = 0.00032344, No Iterations 1
DILUPBiCGStab:  Solving for Uz, Initial residual = 0.00472207, Final residual = 8.75175e-05, No Iterations 1
DICPCG:  Solving for p, Initial residual = 0.995546, Final residual = 0.0317901, No Iterations 16
Time = 0.00078 | residuals: Ux_init = 0.644768 | FilledRatio = 1.05708%

DILUPBiCGStab:  Solving for alpha, Initial residual = 0.0118681, Final residual = 2.50039e-08, No Iterations 1
DILUPBiCGStab:  Solving for Ux, Initial residual = 0.987761, Final residual = 0.00113111, No Iterations 1
DILUPBiCGStab:  Solving for Uy, Initial residual = 0.957359, Final residual = 0.00984218, No Iterations 1
DILUPBiCGStab:  Solving for Uz, Initial residual = 0.712581, Final residual = 0.000596504, No Iterations 1
DICPCG:  Solving for p, Initial residual = 0.880636, Final residual = 0.0350484, No Iterations 16
Time = 0.00079 | residuals: Ux_init = 0.987761 | FilledRatio = 1.01278%

DILUPBiCGStab:  Solving for alpha, Initial residual = 0.014059, Final residual = 1.04628e-08, No Iterations 1
DILUPBiCGStab:  Solving for Ux, Initial residual = 0.903486, Final residual = 0.020646, No Iterations 1
DILUPBiCGStab:  Solving for Uy, Initial residual = 0.569138, Final residual = 0.0218415, No Iterations 1
DILUPBiCGStab:  Solving for Uz, Initial residual = 0.0200685, Final residual = 0.000673444, No Iterations 1
DICPCG:  Solving for p, Initial residual = 0.990322, Final residual = 0.0212996, No Iterations 17
Time = 0.0008 | residuals: Ux_init = 0.903486 | FilledRatio = 0.962728%

DILUPBiCGStab:  Solving for alpha, Initial residual = 0.019799, Final residual = 8.13956e-07, No Iterations 1
DILUPBiCGStab:  Solving for Ux, Initial residual = 0.990819, Final residual = 0.00675825, No Iterations 1
DILUPBiCGStab:  Solving for Uy, Initial residual = 0.939757, Final residual = 0.0174157, No Iterations 1
DILUPBiCGStab:  Solving for Uz, Initial residual = 0.760405, Final residual = 0.00104366, No Iterations 1
DICPCG:  Solving for p, Initial residual = 0.924894, Final residual = 0.0365411, No Iterations 16
Time = 0.00081 | residuals: Ux_init = 0.990819 | FilledRatio = 0.984558%

DILUPBiCGStab:  Solving for alpha, Initial residual = 0.0416793, Final residual = 7.74938e-08, No Iterations 1
DILUPBiCGStab:  Solving for Ux, Initial residual = 0.979806, Final residual = 0.0244897, No Iterations 1
DILUPBiCGStab:  Solving for Uy, Initial residual = 0.854969, Final residual = 0.0352762, No Iterations 1
DILUPBiCGStab:  Solving for Uz, Initial residual = 0.0410768, Final residual = 0.0013013, No Iterations 1
DICPCG:  Solving for p, Initial residual = 0.991947, Final residual = 0.0394449, No Iterations 16
Time = 0.00082 | residuals: Ux_init = 0.979806 | FilledRatio = 0.845429%

DILUPBiCGStab:  Solving for alpha, Initial residual = 0.0680832, Final residual = 3.68231e-10, No Iterations 1
DILUPBiCGStab:  Solving for Ux, Initial residual = 0.993192, Final residual = 0.00798966, No Iterations 1
DILUPBiCGStab:  Solving for Uy, Initial residual = 0.865399, Final residual = 0.0312266, No Iterations 1
DILUPBiCGStab:  Solving for Uz, Initial residual = 0.183868, Final residual = 0.00142922, No Iterations 1
DICPCG:  Solving for p, Initial residual = 0.961173, Final residual = 0.0455217, No Iterations 15
Time = 0.00083 | residuals: Ux_init = 0.993192 | FilledRatio = 1.059%

DILUPBiCGStab:  Solving for alpha, Initial residual = 0.0706641, Final residual = 2.62569e-07, No Iterations 1
DILUPBiCGStab:  Solving for Ux, Initial residual = 0.962128, Final residual = 0.0294125, No Iterations 1
DILUPBiCGStab:  Solving for Uy, Initial residual = 0.817151, Final residual = 0.0295486, No Iterations 1
DILUPBiCGStab:  Solving for Uz, Initial residual = 0.243405, Final residual = 0.00771604, No Iterations 1
DICPCG:  Solving for p, Initial residual = 0.976026, Final residual = 0.041421, No Iterations 9
Time = 0.00084 | residuals: Ux_init = 0.962128 | FilledRatio = 0.814937%

DILUPBiCGStab:  Solving for alpha, Initial residual = 0.0834908, Final residual = 4.85068e-10, No Iterations 1
DILUPBiCGStab:  Solving for Ux, Initial residual = 0.992651, Final residual = 0.00701593, No Iterations 1
DILUPBiCGStab:  Solving for Uy, Initial residual = 0.987536, Final residual = 0.00238238, No Iterations 1
DILUPBiCGStab:  Solving for Uz, Initial residual = 0.750918, Final residual = 0.00108129, No Iterations 1
DICPCG:  Solving for p, Initial residual = 0.938444, Final residual = 0.040034, No Iterations 10
Time = 0.00085 | residuals: Ux_init = 0.992651 | FilledRatio = 1.07472%

DILUPBiCGStab:  Solving for alpha, Initial residual = 0.0211055, Final residual = 1.64335e-07, No Iterations 1
DILUPBiCGStab:  Solving for Ux, Initial residual = 0.988106, Final residual = 0.0111269, No Iterations 1
DILUPBiCGStab:  Solving for Uy, Initial residual = 0.962092, Final residual = 0.0097507, No Iterations 1
DILUPBiCGStab:  Solving for Uz, Initial residual = 0.335409, Final residual = 0.00204621, No Iterations 1
DICPCG:  Solving for p, Initial residual = 0.942611, Final residual = 0.0267843, No Iterations 10
Time = 0.00086 | residuals: Ux_init = 0.988106 | FilledRatio = 1.00799%

DILUPBiCGStab:  Solving for alpha, Initial residual = 0.0378215, Final residual = 1.02116e-10, No Iterations 1
DILUPBiCGStab:  Solving for Ux, Initial residual = 0.994099, Final residual = 0.00455402, No Iterations 1
DILUPBiCGStab:  Solving for Uy, Initial residual = 0.981531, Final residual = 0.00559473, No Iterations 1
DILUPBiCGStab:  Solving for Uz, Initial residual = 0.775786, Final residual = 0.00105745, No Iterations 1
DICPCG:  Solving for p, Initial residual = 0.876054, Final residual = 0.0236143, No Iterations 14
Time = 0.00087 | residuals: Ux_init = 0.994099 | FilledRatio = 1.14837%

DILUPBiCGStab:  Solving for alpha, Initial residual = 0.0239369, Final residual = 2.18514e-07, No Iterations 1
DILUPBiCGStab:  Solving for Ux, Initial residual = 0.936983, Final residual = 0.0372968, No Iterations 1
DILUPBiCGStab:  Solving for Uy, Initial residual = 0.572663, Final residual = 0.0270081, No Iterations 1
DILUPBiCGStab:  Solving for Uz, Initial residual = 0.0597889, Final residual = 0.00230082, No Iterations 1
DICPCG:  Solving for p, Initial residual = 0.956417, Final residual = 0.0349933, No Iterations 14
Time = 0.00088 | residuals: Ux_init = 0.936983 | FilledRatio = 1.06484%

DILUPBiCGStab:  Solving for alpha, Initial residual = 0.0931813, Final residual = 1.13964e-10, No Iterations 1
DILUPBiCGStab:  Solving for Ux, Initial residual = 0.994279, Final residual = 0.00986053, No Iterations 1
DILUPBiCGStab:  Solving for Uy, Initial residual = 0.488848, Final residual = 0.0136311, No Iterations 1
DILUPBiCGStab:  Solving for Uz, Initial residual = 0.114011, Final residual = 0.00200386, No Iterations 1
DICPCG:  Solving for p, Initial residual = 0.999705, Final residual = 0.0237482, No Iterations 14
Time = 0.00089 | residuals: Ux_init = 0.994279 | FilledRatio = 1.4496%

DILUPBiCGStab:  Solving for alpha, Initial residual = 0.0941078, Final residual = 3.51992e-07, No Iterations 1
DILUPBiCGStab:  Solving for Ux, Initial residual = 0.765108, Final residual = 0.000486614, No Iterations 1
DILUPBiCGStab:  Solving for Uy, Initial residual = 0.046499, Final residual = 0.00085787, No Iterations 1
DILUPBiCGStab:  Solving for Uz, Initial residual = 0.0191646, Final residual = 0.000353632, No Iterations 1
DICPCG:  Solving for p, Initial residual = 1, Final residual = 0.0233549, No Iterations 16
Time = 0.0009 | residuals: Ux_init = 0.765108 | FilledRatio = 1.04988%

DILUPBiCGStab:  Solving for alpha, Initial residual = 0.0110171, Final residual = 1.91305e-08, No Iterations 1
DILUPBiCGStab:  Solving for Ux, Initial residual = 0.972874, Final residual = 7.18742e-05, No Iterations 1
DILUPBiCGStab:  Solving for Uy, Initial residual = 0.868174, Final residual = 0.000130911, No Iterations 1
DILUPBiCGStab:  Solving for Uz, Initial residual = 0.387309, Final residual = 0.000215473, No Iterations 1
DICPCG:  Solving for p, Initial residual = 0.958006, Final residual = 0.0431135, No Iterations 13
Time = 0.00091 | residuals: Ux_init = 0.972874 | FilledRatio = 1.01426%

DILUPBiCGStab:  Solving for alpha, Initial residual = 0.0114483, Final residual = 1.73459e-08, No Iterations 1
DILUPBiCGStab:  Solving for Ux, Initial residual = 0.938806, Final residual = 0.000263276, No Iterations 1
DILUPBiCGStab:  Solving for Uy, Initial residual = 0.0219266, Final residual = 0.000417343, No Iterations 1
DILUPBiCGStab:  Solving for Uz, Initial residual = 0.0106798, Final residual = 0.000267355, No Iterations 1
DICPCG:  Solving for p, Initial residual = 1, Final residual = 0.0293105, No Iterations 16
Time = 0.00092 | residuals: Ux_init = 0.938806 | FilledRatio = 0.978011%

DILUPBiCGStab:  Solving for alpha, Initial residual = 0.0122749, Final residual = 1.69859e-08, No Iterations 1
DILUPBiCGStab:  Solving for Ux, Initial residual = 0.977693, Final residual = 7.09227e-05, No Iterations 1
DILUPBiCGStab:  Solving for Uy, Initial residual = 0.737584, Final residual = 0.000126462, No Iterations 1
DILUPBiCGStab:  Solving for Uz, Initial residual = 0.140793, Final residual = 0.000201168, No Iterations 1
DICPCG:  Solving for p, Initial residual = 0.953856, Final residual = 0.039409, No Iterations 16
Time = 0.00093 | residuals: Ux_init = 0.977693 | FilledRatio = 0.942155%

DILUPBiCGStab:  Solving for alpha, Initial residual = 0.013281, Final residual = 1.62929e-08, No Iterations 1
DILUPBiCGStab:  Solving for Ux, Initial residual = 0.97736, Final residual = 0.000152626, No Iterations 1
DILUPBiCGStab:  Solving for Uy, Initial residual = 0.0139876, Final residual = 0.000315287, No Iterations 1
DILUPBiCGStab:  Solving for Uz, Initial residual = 0.00847393, Final residual = 0.000220581, No Iterations 1
DICPCG:  Solving for p, Initial residual = 1, Final residual = 0.0250924, No Iterations 16
Time = 0.00094 | residuals: Ux_init = 0.97736 | FilledRatio = 0.906526%

DILUPBiCGStab:  Solving for alpha, Initial residual = 0.0143876, Final residual = 1.50171e-08, No Iterations 1
DILUPBiCGStab:  Solving for Ux, Initial residual = 0.986945, Final residual = 0.000114316, No Iterations 1
DILUPBiCGStab:  Solving for Uy, Initial residual = 0.261302, Final residual = 0.000222166, No Iterations 1
DILUPBiCGStab:  Solving for Uz, Initial residual = 0.0361867, Final residual = 0.000167187, No Iterations 1
DICPCG:  Solving for p, Initial residual = 0.89735, Final residual = 0.0182183, No Iterations 14
Time = 0.00095 | residuals: Ux_init = 0.986945 | FilledRatio = 0.869667%

DILUPBiCGStab:  Solving for alpha, Initial residual = 0.0155519, Final residual = 1.39076e-08, No Iterations 1
DILUPBiCGStab:  Solving for Ux, Initial residual = 0.993589, Final residual = 8.15318e-05, No Iterations 1
DILUPBiCGStab:  Solving for Uy, Initial residual = 0.0109332, Final residual = 0.000273738, No Iterations 1
DILUPBiCGStab:  Solving for Uz, Initial residual = 0.00722083, Final residual = 0.000190695, No Iterations 1
DICPCG:  Solving for p, Initial residual = 1, Final residual = 0.0229978, No Iterations 14
Time = 0.00096 | residuals: Ux_init = 0.993589 | FilledRatio = 0.831233%

DILUPBiCGStab:  Solving for alpha, Initial residual = 0.0167525, Final residual = 1.26417e-08, No Iterations 1
DILUPBiCGStab:  Solving for Ux, Initial residual = 0.998349, Final residual = 5.51695e-05, No Iterations 1
DILUPBiCGStab:  Solving for Uy, Initial residual = 0.00994534, Final residual = 0.000246319, No Iterations 1
DILUPBiCGStab:  Solving for Uz, Initial residual = 0.00676341, Final residual = 0.000178582, No Iterations 1
DICPCG:  Solving for p, Initial residual = 1, Final residual = 0.0213665, No Iterations 14
Time = 0.00097 | residuals: Ux_init = 0.998349 | FilledRatio = 0.791509%

DILUPBiCGStab:  Solving for alpha, Initial residual = 0.0179788, Final residual = 1.17919e-08, No Iterations 1
DILUPBiCGStab:  Solving for Ux, Initial residual = 1, Final residual = 4.24808e-05, No Iterations 1
DILUPBiCGStab:  Solving for Uy, Initial residual = 0.00927219, Final residual = 0.000220278, No Iterations 1
DILUPBiCGStab:  Solving for Uz, Initial residual = 0.00636989, Final residual = 0.000167495, No Iterations 1
DICPCG:  Solving for p, Initial residual = 1, Final residual = 0.0200555, No Iterations 14
Time = 0.00098 | residuals: Ux_init = 1 | FilledRatio = 0.750821%

DILUPBiCGStab:  Solving for alpha, Initial residual = 0.0191088, Final residual = 1.1265e-08, No Iterations 1
DILUPBiCGStab:  Solving for Ux, Initial residual = 1, Final residual = 4.12537e-05, No Iterations 1
DILUPBiCGStab:  Solving for Uy, Initial residual = 0.00867568, Final residual = 0.000199495, No Iterations 1
DILUPBiCGStab:  Solving for Uz, Initial residual = 0.00602789, Final residual = 0.000157266, No Iterations 1
DICPCG:  Solving for p, Initial residual = 1, Final residual = 0.0188576, No Iterations 14
Time = 0.00099 | residuals: Ux_init = 1 | FilledRatio = 0.709818%

DILUPBiCGStab:  Solving for alpha, Initial residual = 0.0202106, Final residual = 1.10567e-08, No Iterations 1
DILUPBiCGStab:  Solving for Ux, Initial residual = 1, Final residual = 4.01882e-05, No Iterations 1
DILUPBiCGStab:  Solving for Uy, Initial residual = 0.00828293, Final residual = 0.000181284, No Iterations 1
DILUPBiCGStab:  Solving for Uz, Initial residual = 0.0057241, Final residual = 0.000147667, No Iterations 1
DICPCG:  Solving for p, Initial residual = 1, Final residual = 0.0180376, No Iterations 14
Time = 0.001 | residuals: Ux_init = 1 | FilledRatio = 0.668909%

DILUPBiCGStab:  Solving for alpha, Initial residual = 0.0214234, Final residual = 1.12255e-08, No Iterations 1
DILUPBiCGStab:  Solving for Ux, Initial residual = 1, Final residual = 3.92174e-05, No Iterations 1
DILUPBiCGStab:  Solving for Uy, Initial residual = 0.00784752, Final residual = 0.000164838, No Iterations 1
DILUPBiCGStab:  Solving for Uz, Initial residual = 0.00545514, Final residual = 0.000138873, No Iterations 1
DICPCG:  Solving for p, Initial residual = 1, Final residual = 0.017409, No Iterations 14
Time = 0.00101 | residuals: Ux_init = 1 | FilledRatio = 0.628084%

DILUPBiCGStab:  Solving for alpha, Initial residual = 0.0227207, Final residual = 1.14948e-08, No Iterations 1
DILUPBiCGStab:  Solving for Ux, Initial residual = 1, Final residual = 3.79507e-05, No Iterations 1
DILUPBiCGStab:  Solving for Uy, Initial residual = 0.00731938, Final residual = 0.00014707, No Iterations 1
DILUPBiCGStab:  Solving for Uz, Initial residual = 0.0052187, Final residual = 0.000127401, No Iterations 1
DICPCG:  Solving for p, Initial residual = 1, Final residual = 0.0170309, No Iterations 14
Time = 0.00102 | residuals: Ux_init = 1 | FilledRatio = 0.58961%

DILUPBiCGStab:  Solving for alpha, Initial residual = 0.0241263, Final residual = 1.18722e-08, No Iterations 1
DILUPBiCGStab:  Solving for Ux, Initial residual = 1, Final residual = 3.67761e-05, No Iterations 1
DILUPBiCGStab:  Solving for Uy, Initial residual = 0.00683475, Final residual = 0.000129664, No Iterations 1
DILUPBiCGStab:  Solving for Uz, Initial residual = 0.00500095, Final residual = 0.000116987, No Iterations 1
DICPCG:  Solving for p, Initial residual = 1, Final residual = 0.0169012, No Iterations 14
Time = 0.00103 | residuals: Ux_init = 1 | FilledRatio = 0.553604%

DILUPBiCGStab:  Solving for alpha, Initial residual = 0.0257051, Final residual = 1.24856e-08, No Iterations 1
DILUPBiCGStab:  Solving for Ux, Initial residual = 1, Final residual = 3.59839e-05, No Iterations 1
DILUPBiCGStab:  Solving for Uy, Initial residual = 0.00644304, Final residual = 0.000115445, No Iterations 1
DILUPBiCGStab:  Solving for Uz, Initial residual = 0.00479851, Final residual = 0.000109628, No Iterations 1
DICPCG:  Solving for p, Initial residual = 1, Final residual = 0.0164417, No Iterations 14
Time = 0.00104 | residuals: Ux_init = 1 | FilledRatio = 0.517877%

DILUPBiCGStab:  Solving for alpha, Initial residual = 0.0274908, Final residual = 1.32242e-08, No Iterations 1
DILUPBiCGStab:  Solving for Ux, Initial residual = 1, Final residual = 3.53165e-05, No Iterations 1
DILUPBiCGStab:  Solving for Uy, Initial residual = 0.00606877, Final residual = 0.000103411, No Iterations 1
DILUPBiCGStab:  Solving for Uz, Initial residual = 0.00461676, Final residual = 0.000103292, No Iterations 1
DICPCG:  Solving for p, Initial residual = 1, Final residual = 0.0155547, No Iterations 14
Time = 0.00105 | residuals: Ux_init = 1 | FilledRatio = 0.482208%

DILUPBiCGStab:  Solving for alpha, Initial residual = 0.0294434, Final residual = 1.39117e-08, No Iterations 1
DILUPBiCGStab:  Solving for Ux, Initial residual = 1, Final residual = 3.44872e-05, No Iterations 1
DILUPBiCGStab:  Solving for Uy, Initial residual = 0.00573629, Final residual = 9.23656e-05, No Iterations 1
DILUPBiCGStab:  Solving for Uz, Initial residual = 0.00445356, Final residual = 9.60933e-05, No Iterations 1
DICPCG:  Solving for p, Initial residual = 1, Final residual = 0.0148028, No Iterations 14
Time = 0.00106 | residuals: Ux_init = 1 | FilledRatio = 0.448291%

DILUPBiCGStab:  Solving for alpha, Initial residual = 0.0315385, Final residual = 1.4781e-08, No Iterations 1
DILUPBiCGStab:  Solving for Ux, Initial residual = 1, Final residual = 3.32685e-05, No Iterations 1
DILUPBiCGStab:  Solving for Uy, Initial residual = 0.00550387, Final residual = 8.56883e-05, No Iterations 1
DILUPBiCGStab:  Solving for Uz, Initial residual = 0.00431006, Final residual = 8.70976e-05, No Iterations 1
DICPCG:  Solving for p, Initial residual = 1, Final residual = 0.0146899, No Iterations 14
Time = 0.00107 | residuals: Ux_init = 1 | FilledRatio = 0.417053%

DILUPBiCGStab:  Solving for alpha, Initial residual = 0.0337383, Final residual = 1.57274e-08, No Iterations 1
DILUPBiCGStab:  Solving for Ux, Initial residual = 1, Final residual = 3.25251e-05, No Iterations 1
DILUPBiCGStab:  Solving for Uy, Initial residual = 0.00525039, Final residual = 8.04661e-05, No Iterations 1
DILUPBiCGStab:  Solving for Uz, Initial residual = 0.00417635, Final residual = 8.16114e-05, No Iterations 1
DICPCG:  Solving for p, Initial residual = 1, Final residual = 0.0149174, No Iterations 14
Time = 0.00108 | residuals: Ux_init = 1 | FilledRatio = 0.387996%

DILUPBiCGStab:  Solving for alpha, Initial residual = 0.0360483, Final residual = 1.68882e-08, No Iterations 1
DILUPBiCGStab:  Solving for Ux, Initial residual = 1, Final residual = 3.12815e-05, No Iterations 1
DILUPBiCGStab:  Solving for Uy, Initial residual = 0.00489337, Final residual = 7.31627e-05, No Iterations 1
DILUPBiCGStab:  Solving for Uz, Initial residual = 0.00407043, Final residual = 7.5922e-05, No Iterations 1
DICPCG:  Solving for p, Initial residual = 1, Final residual = 0.0207507, No Iterations 14
Time = 0.00109 | residuals: Ux_init = 1 | FilledRatio = 0.362296%

DILUPBiCGStab:  Solving for alpha, Initial residual = 0.0386587, Final residual = 1.87029e-08, No Iterations 1
DILUPBiCGStab:  Solving for Ux, Initial residual = 1, Final residual = 3.07719e-05, No Iterations 1
DILUPBiCGStab:  Solving for Uy, Initial residual = 0.00467849, Final residual = 6.72174e-05, No Iterations 1
DILUPBiCGStab:  Solving for Uz, Initial residual = 0.00396244, Final residual = 7.17771e-05, No Iterations 1
DICPCG:  Solving for p, Initial residual = 1, Final residual = 0.0198738, No Iterations 14
Time = 0.0011 | residuals: Ux_init = 1 | FilledRatio = 0.336624%

DILUPBiCGStab:  Solving for alpha, Initial residual = 0.0416714, Final residual = 2.02864e-08, No Iterations 1
DILUPBiCGStab:  Solving for Ux, Initial residual = 1, Final residual = 3.02583e-05, No Iterations 1
DILUPBiCGStab:  Solving for Uy, Initial residual = 0.00467267, Final residual = 6.30783e-05, No Iterations 1
DILUPBiCGStab:  Solving for Uz, Initial residual = 0.00386587, Final residual = 6.77662e-05, No Iterations 1
DICPCG:  Solving for p, Initial residual = 1, Final residual = 0.0197121, No Iterations 14
Time = 0.00111 | residuals: Ux_init = 1 | FilledRatio = 0.310977%

DILUPBiCGStab:  Solving for alpha, Initial residual = 0.0450292, Final residual = 2.18577e-08, No Iterations 1
DILUPBiCGStab:  Solving for Ux, Initial residual = 1, Final residual = 2.96892e-05, No Iterations 1
DILUPBiCGStab:  Solving for Uy, Initial residual = 0.0047021, Final residual = 5.9546e-05, No Iterations 1
DILUPBiCGStab:  Solving for Uz, Initial residual = 0.00377886, Final residual = 6.35481e-05, No Iterations 1
DICPCG:  Solving for p, Initial residual = 1, Final residual = 0.0206697, No Iterations 14
Time = 0.00112 | residuals: Ux_init = 1 | FilledRatio = 0.286227%

DILUPBiCGStab:  Solving for alpha, Initial residual = 0.048551, Final residual = 2.34638e-08, No Iterations 1
DILUPBiCGStab:  Solving for Ux, Initial residual = 1, Final residual = 2.84639e-05, No Iterations 1
DILUPBiCGStab:  Solving for Uy, Initial residual = 0.00478858, Final residual = 5.67254e-05, No Iterations 1
DILUPBiCGStab:  Solving for Uz, Initial residual = 0.00370315, Final residual = 5.66324e-05, No Iterations 1
DICPCG:  Solving for p, Initial residual = 1, Final residual = 0.021995, No Iterations 14
Time = 0.00113 | residuals: Ux_init = 1 | FilledRatio = 0.265021%

DILUPBiCGStab:  Solving for alpha, Initial residual = 0.0524186, Final residual = 2.5276e-08, No Iterations 1
DILUPBiCGStab:  Solving for Ux, Initial residual = 1, Final residual = 2.79822e-05, No Iterations 1
DILUPBiCGStab:  Solving for Uy, Initial residual = 0.00483649, Final residual = 5.62457e-05, No Iterations 1
DILUPBiCGStab:  Solving for Uz, Initial residual = 0.00363243, Final residual = 5.30025e-05, No Iterations 1
DICPCG:  Solving for p, Initial residual = 1, Final residual = 0.0239996, No Iterations 14
Time = 0.00114 | residuals: Ux_init = 1 | FilledRatio = 0.244322%

DILUPBiCGStab:  Solving for alpha, Initial residual = 0.0569616, Final residual = 2.75254e-08, No Iterations 1
DILUPBiCGStab:  Solving for Ux, Initial residual = 1, Final residual = 2.74967e-05, No Iterations 1
DILUPBiCGStab:  Solving for Uy, Initial residual = 0.00483408, Final residual = 5.61115e-05, No Iterations 1
DILUPBiCGStab:  Solving for Uz, Initial residual = 0.00356358, Final residual = 4.98665e-05, No Iterations 1
DICPCG:  Solving for p, Initial residual = 1, Final residual = 0.0259294, No Iterations 14
Time = 0.00115 | residuals: Ux_init = 1 | FilledRatio = 0.223639%

DILUPBiCGStab:  Solving for alpha, Initial residual = 0.0623452, Final residual = 3.02726e-08, No Iterations 1
DILUPBiCGStab:  Solving for Ux, Initial residual = 1, Final residual = 2.70026e-05, No Iterations 1
DILUPBiCGStab:  Solving for Uy, Initial residual = 0.00485514, Final residual = 5.79163e-05, No Iterations 1
DILUPBiCGStab:  Solving for Uz, Initial residual = 0.00349858, Final residual = 4.68947e-05, No Iterations 1
DICPCG:  Solving for p, Initial residual = 1, Final residual = 0.0277746, No Iterations 14
Time = 0.00116 | residuals: Ux_init = 1 | FilledRatio = 0.202971%

DILUPBiCGStab:  Solving for alpha, Initial residual = 0.0688162, Final residual = 3.33925e-08, No Iterations 1
DILUPBiCGStab:  Solving for Ux, Initial residual = 1, Final residual = 2.64845e-05, No Iterations 1
DILUPBiCGStab:  Solving for Uy, Initial residual = 0.00489528, Final residual = 6.02791e-05, No Iterations 1
DILUPBiCGStab:  Solving for Uz, Initial residual = 0.0034375, Final residual = 4.39792e-05, No Iterations 1
DICPCG:  Solving for p, Initial residual = 1, Final residual = 0.0291058, No Iterations 14
Time = 0.00117 | residuals: Ux_init = 1 | FilledRatio = 0.182316%

DILUPBiCGStab:  Solving for alpha, Initial residual = 0.0758603, Final residual = 3.66375e-08, No Iterations 1
DILUPBiCGStab:  Solving for Ux, Initial residual = 1, Final residual = 2.58175e-05, No Iterations 1
DILUPBiCGStab:  Solving for Uy, Initial residual = 0.00493259, Final residual = 6.20502e-05, No Iterations 1
DILUPBiCGStab:  Solving for Uz, Initial residual = 0.00338167, Final residual = 4.04332e-05, No Iterations 1
DICPCG:  Solving for p, Initial residual = 1, Final residual = 0.0295641, No Iterations 14
Time = 0.00118 | residuals: Ux_init = 1 | FilledRatio = 0.164245%

DILUPBiCGStab:  Solving for alpha, Initial residual = 0.0832488, Final residual = 4.01489e-08, No Iterations 1
DILUPBiCGStab:  Solving for Ux, Initial residual = 1, Final residual = 2.45548e-05, No Iterations 1
DILUPBiCGStab:  Solving for Uy, Initial residual = 0.00496022, Final residual = 6.18426e-05, No Iterations 1
DILUPBiCGStab:  Solving for Uz, Initial residual = 0.00333965, Final residual = 3.39839e-05, No Iterations 1
DICPCG:  Solving for p, Initial residual = 1, Final residual = 0.0271724, No Iterations 14
Time = 0.00119 | residuals: Ux_init = 1 | FilledRatio = 0.148509%

DILUPBiCGStab:  Solving for alpha, Initial residual = 0.090758, Final residual = 4.39755e-08, No Iterations 1
DILUPBiCGStab:  Solving for Ux, Initial residual = 1, Final residual = 2.38878e-05, No Iterations 1
DILUPBiCGStab:  Solving for Uy, Initial residual = 0.00497972, Final residual = 6.04897e-05, No Iterations 1
DILUPBiCGStab:  Solving for Uz, Initial residual = 0.00327694, Final residual = 3.09604e-05, No Iterations 1
DICPCG:  Solving for p, Initial residual = 1, Final residual = 0.0271202, No Iterations 14
Time = 0.0012 | residuals: Ux_init = 1 | FilledRatio = 0.135289%

DILUPBiCGStab:  Solving for alpha, Initial residual = 0.0980631, Final residual = 4.72766e-08, No Iterations 1
DILUPBiCGStab:  Solving for Ux, Initial residual = 1, Final residual = 2.26043e-05, No Iterations 1
DILUPBiCGStab:  Solving for Uy, Initial residual = 0.004992, Final residual = 5.37786e-05, No Iterations 1
DILUPBiCGStab:  Solving for Uz, Initial residual = 0.00324086, Final residual = 2.70806e-05, No Iterations 1
DICPCG:  Solving for p, Initial residual = 1, Final residual = 0.0253067, No Iterations 14
Time = 0.00121 | residuals: Ux_init = 1 | FilledRatio = 0.124473%

DILUPBiCGStab:  Solving for alpha, Initial residual = 0.106167, Final residual = 5.08756e-08, No Iterations 1
DILUPBiCGStab:  Solving for Ux, Initial residual = 1, Final residual = 2.20918e-05, No Iterations 1
DILUPBiCGStab:  Solving for Uy, Initial residual = 0.00497472, Final residual = 5.37812e-05, No Iterations 1
DILUPBiCGStab:  Solving for Uz, Initial residual = 0.00317173, Final residual = 2.58338e-05, No Iterations 1
DICPCG:  Solving for p, Initial residual = 1, Final residual = 0.0257258, No Iterations 14
Time = 0.00122 | residuals: Ux_init = 1 | FilledRatio = 0.113666%

DILUPBiCGStab:  Solving for alpha, Initial residual = 0.113109, Final residual = 5.43896e-08, No Iterations 1
DILUPBiCGStab:  Solving for Ux, Initial residual = 1, Final residual = 2.1336e-05, No Iterations 1
DILUPBiCGStab:  Solving for Uy, Initial residual = 0.00493873, Final residual = 5.32291e-05, No Iterations 1
DILUPBiCGStab:  Solving for Uz, Initial residual = 0.00310698, Final residual = 2.46316e-05, No Iterations 1
DICPCG:  Solving for p, Initial residual = 1, Final residual = 0.0257142, No Iterations 14
Time = 0.00123 | residuals: Ux_init = 1 | FilledRatio = 0.106834%

DILUPBiCGStab:  Solving for alpha, Initial residual = 0.116092, Final residual = 5.57907e-08, No Iterations 1
DILUPBiCGStab:  Solving for Ux, Initial residual = 1, Final residual = 1.95008e-05, No Iterations 1
DILUPBiCGStab:  Solving for Uy, Initial residual = 0.0049323, Final residual = 4.43682e-05, No Iterations 1
DILUPBiCGStab:  Solving for Uz, Initial residual = 0.0030632, Final residual = 2.34043e-05, No Iterations 1
DICPCG:  Solving for p, Initial residual = 1, Final residual = 0.0284584, No Iterations 14
Time = 0.00124 | residuals: Ux_init = 1 | FilledRatio = 0.105349%

DILUPBiCGStab:  Solving for alpha, Initial residual = 0.117104, Final residual = 5.6393e-08, No Iterations 1
DILUPBiCGStab:  Solving for Ux, Initial residual = 1, Final residual = 1.86441e-05, No Iterations 1
DILUPBiCGStab:  Solving for Uy, Initial residual = 0.00491991, Final residual = 3.71879e-05, No Iterations 1
DILUPBiCGStab:  Solving for Uz, Initial residual = 0.00303227, Final residual = 2.21667e-05, No Iterations 1
DICPCG:  Solving for p, Initial residual = 1, Final residual = 0.0314672, No Iterations 14
Time = 0.00125 | residuals: Ux_init = 1 | FilledRatio = 0.104378%

DILUPBiCGStab:  Solving for alpha, Initial residual = 0.118071, Final residual = 5.70251e-08, No Iterations 1
DILUPBiCGStab:  Solving for Ux, Initial residual = 1, Final residual = 1.82433e-05, No Iterations 1
DILUPBiCGStab:  Solving for Uy, Initial residual = 0.00490779, Final residual = 3.41234e-05, No Iterations 1
DILUPBiCGStab:  Solving for Uz, Initial residual = 0.00299875, Final residual = 2.10936e-05, No Iterations 1
DICPCG:  Solving for p, Initial residual = 1, Final residual = 0.0306692, No Iterations 14
Time = 0.00126 | residuals: Ux_init = 1 | FilledRatio = 0.103416%

DILUPBiCGStab:  Solving for alpha, Initial residual = 0.119037, Final residual = 5.76887e-08, No Iterations 1
DILUPBiCGStab:  Solving for Ux, Initial residual = 1, Final residual = 1.78466e-05, No Iterations 1
DILUPBiCGStab:  Solving for Uy, Initial residual = 0.00490329, Final residual = 3.32986e-05, No Iterations 1
DILUPBiCGStab:  Solving for Uz, Initial residual = 0.00296893, Final residual = 2.00996e-05, No Iterations 1
DICPCG:  Solving for p, Initial residual = 1, Final residual = 0.0293804, No Iterations 14
Time = 0.00127 | residuals: Ux_init = 1 | FilledRatio = 0.102463%

DILUPBiCGStab:  Solving for alpha, Initial residual = 0.120009, Final residual = 5.78944e-08, No Iterations 1
DILUPBiCGStab:  Solving for Ux, Initial residual = 1, Final residual = 1.74874e-05, No Iterations 1
DILUPBiCGStab:  Solving for Uy, Initial residual = 0.00490082, Final residual = 3.35232e-05, No Iterations 1
DILUPBiCGStab:  Solving for Uz, Initial residual = 0.00294089, Final residual = 1.91655e-05, No Iterations 1
DICPCG:  Solving for p, Initial residual = 1, Final residual = 0.0284868, No Iterations 11
Time = 0.00128 | residuals: Ux_init = 1 | FilledRatio = 0.10152%

DILUPBiCGStab:  Solving for alpha, Initial residual = 0.120988, Final residual = 5.65213e-08, No Iterations 1
DILUPBiCGStab:  Solving for Ux, Initial residual = 1, Final residual = 1.71394e-05, No Iterations 1
DILUPBiCGStab:  Solving for Uy, Initial residual = 0.00490509, Final residual = 3.57683e-05, No Iterations 1
DILUPBiCGStab:  Solving for Uz, Initial residual = 0.00291428, Final residual = 1.8396e-05, No Iterations 1
DICPCG:  Solving for p, Initial residual = 1, Final residual = 0.0290149, No Iterations 14
Time = 0.00129 | residuals: Ux_init = 1 | FilledRatio = 0.100585%

DILUPBiCGStab:  Solving for alpha, Initial residual = 0.121974, Final residual = 5.72935e-08, No Iterations 1
DILUPBiCGStab:  Solving for Ux, Initial residual = 1, Final residual = 1.67826e-05, No Iterations 1
DILUPBiCGStab:  Solving for Uy, Initial residual = 0.00489919, Final residual = 3.535e-05, No Iterations 1
DILUPBiCGStab:  Solving for Uz, Initial residual = 0.00288798, Final residual = 1.74949e-05, No Iterations 1
DICPCG:  Solving for p, Initial residual = 1, Final residual = 0.0293001, No Iterations 14
Time = 0.0013 | residuals: Ux_init = 1 | FilledRatio = 0.0996598%

DILUPBiCGStab:  Solving for alpha, Initial residual = 0.122966, Final residual = 5.71572e-08, No Iterations 1
DILUPBiCGStab:  Solving for Ux, Initial residual = 1, Final residual = 1.64504e-05, No Iterations 1
DILUPBiCGStab:  Solving for Uy, Initial residual = 0.0048974, Final residual = 3.61225e-05, No Iterations 1
DILUPBiCGStab:  Solving for Uz, Initial residual = 0.00286572, Final residual = 1.66787e-05, No Iterations 1
DICPCG:  Solving for p, Initial residual = 1, Final residual = 0.0292345, No Iterations 14
Time = 0.00131 | residuals: Ux_init = 1 | FilledRatio = 0.098743%

DILUPBiCGStab:  Solving for alpha, Initial residual = 0.123965, Final residual = 5.67789e-08, No Iterations 1
DILUPBiCGStab:  Solving for Ux, Initial residual = 1, Final residual = 1.61256e-05, No Iterations 1
[...]

DILUPBiCGStab:  Solving for alpha, Initial residual = 0.762944, Final residual = 3.37328e-11, No Iterations 1
DILUPBiCGStab:  Solving for Ux, Initial residual = 1, Final residual = 6.62159e-06, No Iterations 1
DILUPBiCGStab:  Solving for Uy, Initial residual = 0.00549062, Final residual = 3.87666e-06, No Iterations 1
DILUPBiCGStab:  Solving for Uz, Initial residual = 0.00404417, Final residual = 3.71043e-06, No Iterations 1
DICPCG:  Solving for p, Initial residual = 1, Final residual = 0.0465836, No Iterations 13
Time = 0.00467 | residuals: Ux_init = 1 | FilledRatio = 0.00429239%

DILUPBiCGStab:  Solving for alpha, Initial residual = 0.764684, Final residual = 3.48556e-11, No Iterations 1
DILUPBiCGStab:  Solving for Ux, Initial residual = 1, Final residual = 6.62435e-06, No Iterations 1
DILUPBiCGStab:  Solving for Uy, Initial residual = 0.00551481, Final residual = 3.84443e-06, No Iterations 1
DILUPBiCGStab:  Solving for Uz, Initial residual = 0.00403923, Final residual = 3.6589e-06, No Iterations 1
DICPCG:  Solving for p, Initial residual = 1, Final residual = 0.0465103, No Iterations 13
Time = 0.00468 | residuals: Ux_init = 1 | FilledRatio = 0.00425113%

DILUPBiCGStab:  Solving for alpha, Initial residual = 0.766416, Final residual = 3.59962e-11, No Iterations 1
DILUPBiCGStab:  Solving for Ux, Initial residual = 1, Final residual = 6.62675e-06, No Iterations 1
DILUPBiCGStab:  Solving for Uy, Initial residual = 0.00553867, Final residual = 3.81018e-06, No Iterations 1
DILUPBiCGStab:  Solving for Uz, Initial residual = 0.00403434, Final residual = 3.60776e-06, No Iterations 1
DICPCG:  Solving for p, Initial residual = 1, Final residual = 0.0464177, No Iterations 13
Time = 0.00469 | residuals: Ux_init = 1 | FilledRatio = 0.00421025%

DILUPBiCGStab:  Solving for alpha, Initial residual = 0.76814, Final residual = 3.71558e-11, No Iterations 1
DILUPBiCGStab:  Solving for Ux, Initial residual = 1, Final residual = 6.62865e-06, No Iterations 1
DILUPBiCGStab:  Solving for Uy, Initial residual = 0.00556236, Final residual = 3.77457e-06, No Iterations 1
DILUPBiCGStab:  Solving for Uz, Initial residual = 0.00402944, Final residual = 3.55697e-06, No Iterations 1
DICPCG:  Solving for p, Initial residual = 1, Final residual = 0.0463182, No Iterations 13
Time = 0.0047 | residuals: Ux_init = 1 | FilledRatio = 0.00416975%

DILUPBiCGStab:  Solving for alpha, Initial residual = 0.769855, Final residual = 3.83356e-11, No Iterations 1
DILUPBiCGStab:  Solving for Ux, Initial residual = 1, Final residual = 6.63e-06, No Iterations 1
DILUPBiCGStab:  Solving for Uy, Initial residual = 0.00558644, Final residual = 3.73839e-06, No Iterations 1
DILUPBiCGStab:  Solving for Uz, Initial residual = 0.00402463, Final residual = 3.50652e-06, No Iterations 1
DICPCG:  Solving for p, Initial residual = 1, Final residual = 0.0462075, No Iterations 13
Time = 0.00471 | residuals: Ux_init = 1 | FilledRatio = 0.00412962%

DILUPBiCGStab:  Solving for alpha, Initial residual = 0.771562, Final residual = 3.95358e-11, No Iterations 1
DILUPBiCGStab:  Solving for Ux, Initial residual = 1, Final residual = 6.63068e-06, No Iterations 1
DILUPBiCGStab:  Solving for Uy, Initial residual = 0.00561095, Final residual = 3.70193e-06, No Iterations 1
DILUPBiCGStab:  Solving for Uz, Initial residual = 0.00402002, Final residual = 3.45661e-06, No Iterations 1
DICPCG:  Solving for p, Initial residual = 1, Final residual = 0.0461083, No Iterations 13
Time = 0.00472 | residuals: Ux_init = 1 | FilledRatio = 0.00408987%

DILUPBiCGStab:  Solving for alpha, Initial residual = 0.773261, Final residual = 4.0769e-11, No Iterations 1
DILUPBiCGStab:  Solving for Ux, Initial residual = 1, Final residual = 6.63193e-06, No Iterations 1
DILUPBiCGStab:  Solving for Uy, Initial residual = 0.00563404, Final residual = 3.66704e-06, No Iterations 1
DILUPBiCGStab:  Solving for Uz, Initial residual = 0.00401559, Final residual = 3.40759e-06, No Iterations 1
DICPCG:  Solving for p, Initial residual = 1, Final residual = 0.0460186, No Iterations 13
Time = 0.00473 | residuals: Ux_init = 1 | FilledRatio = 0.00405048%

DILUPBiCGStab:  Solving for alpha, Initial residual = 0.774951, Final residual = 4.20353e-11, No Iterations 1
DILUPBiCGStab:  Solving for Ux, Initial residual = 1, Final residual = 6.63404e-06, No Iterations 1
DILUPBiCGStab:  Solving for Uy, Initial residual = 0.00565599, Final residual = 3.63316e-06, No Iterations 1
DILUPBiCGStab:  Solving for Uz, Initial residual = 0.00401121, Final residual = 3.35947e-06, No Iterations 1
DICPCG:  Solving for p, Initial residual = 1, Final residual = 0.0459186, No Iterations 13
Time = 0.00474 | residuals: Ux_init = 1 | FilledRatio = 0.00401145%

DILUPBiCGStab:  Solving for alpha, Initial residual = 0.776634, Final residual = 4.33246e-11, No Iterations 1
DILUPBiCGStab:  Solving for Ux, Initial residual = 1, Final residual = 6.63626e-06, No Iterations 1
DILUPBiCGStab:  Solving for Uy, Initial residual = 0.0056774, Final residual = 3.59822e-06, No Iterations 1
DILUPBiCGStab:  Solving for Uz, Initial residual = 0.00400625, Final residual = 3.31201e-06, No Iterations 1
DICPCG:  Solving for p, Initial residual = 1, Final residual = 0.0458148, No Iterations 13
Time = 0.00475 | residuals: Ux_init = 1 | FilledRatio = 0.00397279%

DILUPBiCGStab:  Solving for alpha, Initial residual = 0.778307, Final residual = 4.46268e-11, No Iterations 1
DILUPBiCGStab:  Solving for Ux, Initial residual = 1, Final residual = 6.63802e-06, No Iterations 1
DILUPBiCGStab:  Solving for Uy, Initial residual = 0.00569741, Final residual = 3.56105e-06, No Iterations 1
DILUPBiCGStab:  Solving for Uz, Initial residual = 0.00400127, Final residual = 3.26494e-06, No Iterations 1
DICPCG:  Solving for p, Initial residual = 1, Final residual = 0.045719, No Iterations 13
Time = 0.00476 | residuals: Ux_init = 1 | FilledRatio = 0.00393448%

DILUPBiCGStab:  Solving for alpha, Initial residual = 0.779973, Final residual = 4.59507e-11, No Iterations 1
DILUPBiCGStab:  Solving for Ux, Initial residual = 1, Final residual = 6.63947e-06, No Iterations 1
DILUPBiCGStab:  Solving for Uy, Initial residual = 0.00571691, Final residual = 3.52342e-06, No Iterations 1
DILUPBiCGStab:  Solving for Uz, Initial residual = 0.00399693, Final residual = 3.2184e-06, No Iterations 1
DICPCG:  Solving for p, Initial residual = 1, Final residual = 0.0456397, No Iterations 13
Time = 0.00477 | residuals: Ux_init = 1 | FilledRatio = 0.00389653%

DILUPBiCGStab:  Solving for alpha, Initial residual = 0.78163, Final residual = 4.73006e-11, No Iterations 1
DILUPBiCGStab:  Solving for Ux, Initial residual = 1, Final residual = 6.64102e-06, No Iterations 1
DILUPBiCGStab:  Solving for Uy, Initial residual = 0.00573466, Final residual = 3.48568e-06, No Iterations 1
DILUPBiCGStab:  Solving for Uz, Initial residual = 0.00399321, Final residual = 3.17234e-06, No Iterations 1
DICPCG:  Solving for p, Initial residual = 1, Final residual = 0.0455588, No Iterations 13
Time = 0.00478 | residuals: Ux_init = 1 | FilledRatio = 0.00385892%

DILUPBiCGStab:  Solving for alpha, Initial residual = 0.783279, Final residual = 4.8677e-11, No Iterations 1
DILUPBiCGStab:  Solving for Ux, Initial residual = 1, Final residual = 6.64542e-06, No Iterations 1
DILUPBiCGStab:  Solving for Uy, Initial residual = 0.00575114, Final residual = 3.44821e-06, No Iterations 1
DILUPBiCGStab:  Solving for Uz, Initial residual = 0.00398916, Final residual = 3.12659e-06, No Iterations 1
DICPCG:  Solving for p, Initial residual = 1, Final residual = 0.0454818, No Iterations 13
Time = 0.00479 | residuals: Ux_init = 1 | FilledRatio = 0.00382167%

DILUPBiCGStab:  Solving for alpha, Initial residual = 0.78492, Final residual = 5.00823e-11, No Iterations 1
DILUPBiCGStab:  Solving for Ux, Initial residual = 1, Final residual = 6.65308e-06, No Iterations 1
DILUPBiCGStab:  Solving for Uy, Initial residual = 0.00576731, Final residual = 3.41138e-06, No Iterations 1
DILUPBiCGStab:  Solving for Uz, Initial residual = 0.00398514, Final residual = 3.08132e-06, No Iterations 1
DICPCG:  Solving for p, Initial residual = 1, Final residual = 0.0454292, No Iterations 13
Time = 0.0048 | residuals: Ux_init = 1 | FilledRatio = 0.00378476%

DILUPBiCGStab:  Solving for alpha, Initial residual = 0.786552, Final residual = 5.15199e-11, No Iterations 1
DILUPBiCGStab:  Solving for Ux, Initial residual = 1, Final residual = 6.66113e-06, No Iterations 1
DILUPBiCGStab:  Solving for Uy, Initial residual = 0.00578254, Final residual = 3.37541e-06, No Iterations 1
DILUPBiCGStab:  Solving for Uz, Initial residual = 0.00398063, Final residual = 3.03658e-06, No Iterations 1
DICPCG:  Solving for p, Initial residual = 1, Final residual = 0.045367, No Iterations 13
Time = 0.00481 | residuals: Ux_init = 1 | FilledRatio = 0.00374819%

DILUPBiCGStab:  Solving for alpha, Initial residual = 0.788176, Final residual = 5.29789e-11, No Iterations 1
DILUPBiCGStab:  Solving for Ux, Initial residual = 1, Final residual = 6.66789e-06, No Iterations 1
DILUPBiCGStab:  Solving for Uy, Initial residual = 0.00579678, Final residual = 3.33862e-06, No Iterations 1
DILUPBiCGStab:  Solving for Uz, Initial residual = 0.00397614, Final residual = 2.99252e-06, No Iterations 1
DICPCG:  Solving for p, Initial residual = 1, Final residual = 0.0453091, No Iterations 13
Time = 0.00482 | residuals: Ux_init = 1 | FilledRatio = 0.00371195%

DILUPBiCGStab:  Solving for alpha, Initial residual = 0.789792, Final residual = 5.44575e-11, No Iterations 1
DILUPBiCGStab:  Solving for Ux, Initial residual = 1, Final residual = 6.67263e-06, No Iterations 1
DILUPBiCGStab:  Solving for Uy, Initial residual = 0.00581059, Final residual = 3.30129e-06, No Iterations 1
DILUPBiCGStab:  Solving for Uz, Initial residual = 0.00397204, Final residual = 2.94895e-06, No Iterations 1
DICPCG:  Solving for p, Initial residual = 1, Final residual = 0.0453025, No Iterations 13
Time = 0.00483 | residuals: Ux_init = 1 | FilledRatio = 0.00367605%

DILUPBiCGStab:  Solving for alpha, Initial residual = 0.791399, Final residual = 5.59667e-11, No Iterations 1
DILUPBiCGStab:  Solving for Ux, Initial residual = 1, Final residual = 6.67459e-06, No Iterations 1
DILUPBiCGStab:  Solving for Uy, Initial residual = 0.00582451, Final residual = 3.26497e-06, No Iterations 1
DILUPBiCGStab:  Solving for Uz, Initial residual = 0.00396803, Final residual = 2.90576e-06, No Iterations 1
DICPCG:  Solving for p, Initial residual = 1, Final residual = 0.0453409, No Iterations 13
Time = 0.00484 | residuals: Ux_init = 1 | FilledRatio = 0.00364049%

DILUPBiCGStab:  Solving for alpha, Initial residual = 0.792997, Final residual = 5.75035e-11, No Iterations 1
DILUPBiCGStab:  Solving for Ux, Initial residual = 1, Final residual = 6.67255e-06, No Iterations 1
DILUPBiCGStab:  Solving for Uy, Initial residual = 0.00583871, Final residual = 3.22933e-06, No Iterations 1
DILUPBiCGStab:  Solving for Uz, Initial residual = 0.00396423, Final residual = 2.86299e-06, No Iterations 1
DICPCG:  Solving for p, Initial residual = 1, Final residual = 0.0453955, No Iterations 13
Time = 0.00485 | residuals: Ux_init = 1 | FilledRatio = 0.00360525%

DILUPBiCGStab:  Solving for alpha, Initial residual = 0.794588, Final residual = 5.90713e-11, No Iterations 1
DILUPBiCGStab:  Solving for Ux, Initial residual = 1, Final residual = 6.6716e-06, No Iterations 1
DILUPBiCGStab:  Solving for Uy, Initial residual = 0.00585138, Final residual = 3.1942e-06, No Iterations 1
DILUPBiCGStab:  Solving for Uz, Initial residual = 0.00396057, Final residual = 2.82069e-06, No Iterations 1
DICPCG:  Solving for p, Initial residual = 1, Final residual = 0.0454428, No Iterations 13
Time = 0.00486 | residuals: Ux_init = 1 | FilledRatio = 0.00357033%

DILUPBiCGStab:  Solving for alpha, Initial residual = 0.79617, Final residual = 6.06542e-11, No Iterations 1
DILUPBiCGStab:  Solving for Ux, Initial residual = 1, Final residual = 6.67162e-06, No Iterations 1
DILUPBiCGStab:  Solving for Uy, Initial residual = 0.00586241, Final residual = 3.15793e-06, No Iterations 1
DILUPBiCGStab:  Solving for Uz, Initial residual = 0.00395728, Final residual = 2.77886e-06, No Iterations 1
DICPCG:  Solving for p, Initial residual = 1, Final residual = 0.045506, No Iterations 13
Time = 0.00487 | residuals: Ux_init = 1 | FilledRatio = 0.00353574%

DILUPBiCGStab:  Solving for alpha, Initial residual = 0.797744, Final residual = 6.22479e-11, No Iterations 1
DILUPBiCGStab:  Solving for Ux, Initial residual = 1, Final residual = 6.67182e-06, No Iterations 1
DILUPBiCGStab:  Solving for Uy, Initial residual = 0.00587287, Final residual = 3.12032e-06, No Iterations 1
DILUPBiCGStab:  Solving for Uz, Initial residual = 0.00395428, Final residual = 2.73731e-06, No Iterations 1
DICPCG:  Solving for p, Initial residual = 1, Final residual = 0.0455556, No Iterations 13
Time = 0.00488 | residuals: Ux_init = 1 | FilledRatio = 0.00350147%

DILUPBiCGStab:  Solving for alpha, Initial residual = 0.799309, Final residual = 6.38925e-11, No Iterations 1
DILUPBiCGStab:  Solving for Ux, Initial residual = 1, Final residual = 6.67244e-06, No Iterations 1
DILUPBiCGStab:  Solving for Uy, Initial residual = 0.00588301, Final residual = 3.08687e-06, No Iterations 1
DILUPBiCGStab:  Solving for Uz, Initial residual = 0.00395045, Final residual = 2.69607e-06, No Iterations 1
DICPCG:  Solving for p, Initial residual = 1, Final residual = 0.0455845, No Iterations 13
Time = 0.00489 | residuals: Ux_init = 1 | FilledRatio = 0.00346752%

DILUPBiCGStab:  Solving for alpha, Initial residual = 0.800866, Final residual = 6.55752e-11, No Iterations 1
DILUPBiCGStab:  Solving for Ux, Initial residual = 1, Final residual = 6.67199e-06, No Iterations 1
DILUPBiCGStab:  Solving for Uy, Initial residual = 0.00589339, Final residual = 3.05604e-06, No Iterations 1
DILUPBiCGStab:  Solving for Uz, Initial residual = 0.0039463, Final residual = 2.65525e-06, No Iterations 1
DICPCG:  Solving for p, Initial residual = 1, Final residual = 0.0456636, No Iterations 13
Time = 0.0049 | residuals: Ux_init = 1 | FilledRatio = 0.00343388%

DILUPBiCGStab:  Solving for alpha, Initial residual = 0.802414, Final residual = 6.72772e-11, No Iterations 1
DILUPBiCGStab:  Solving for Ux, Initial residual = 1, Final residual = 6.67838e-06, No Iterations 1
DILUPBiCGStab:  Solving for Uy, Initial residual = 0.00590447, Final residual = 3.02571e-06, No Iterations 1
DILUPBiCGStab:  Solving for Uz, Initial residual = 0.00394209, Final residual = 2.61474e-06, No Iterations 1
DICPCG:  Solving for p, Initial residual = 1, Final residual = 0.0458216, No Iterations 13
Time = 0.00491 | residuals: Ux_init = 1 | FilledRatio = 0.00340055%

DILUPBiCGStab:  Solving for alpha, Initial residual = 0.803955, Final residual = 6.9007e-11, No Iterations 1
DILUPBiCGStab:  Solving for Ux, Initial residual = 1, Final residual = 6.69375e-06, No Iterations 1
DILUPBiCGStab:  Solving for Uy, Initial residual = 0.00591659, Final residual = 2.99601e-06, No Iterations 1
DILUPBiCGStab:  Solving for Uz, Initial residual = 0.00393811, Final residual = 2.57456e-06, No Iterations 1
DICPCG:  Solving for p, Initial residual = 1, Final residual = 0.0460212, No Iterations 13
Time = 0.00492 | residuals: Ux_init = 1 | FilledRatio = 0.00336752%

DILUPBiCGStab:  Solving for alpha, Initial residual = 0.805486, Final residual = 7.07085e-11, No Iterations 1
DILUPBiCGStab:  Solving for Ux, Initial residual = 1, Final residual = 6.71136e-06, No Iterations 1
DILUPBiCGStab:  Solving for Uy, Initial residual = 0.00592768, Final residual = 2.96086e-06, No Iterations 1
DILUPBiCGStab:  Solving for Uz, Initial residual = 0.00393397, Final residual = 2.53486e-06, No Iterations 1
DICPCG:  Solving for p, Initial residual = 1, Final residual = 0.0462136, No Iterations 13
Time = 0.00493 | residuals: Ux_init = 1 | FilledRatio = 0.00333481%

DILUPBiCGStab:  Solving for alpha, Initial residual = 0.80701, Final residual = 7.24004e-11, No Iterations 1
DILUPBiCGStab:  Solving for Ux, Initial residual = 1, Final residual = 6.72832e-06, No Iterations 1
DILUPBiCGStab:  Solving for Uy, Initial residual = 0.00593767, Final residual = 2.9231e-06, No Iterations 1
DILUPBiCGStab:  Solving for Uz, Initial residual = 0.00392978, Final residual = 2.49547e-06, No Iterations 1
DICPCG:  Solving for p, Initial residual = 1, Final residual = 0.0463959, No Iterations 13
Time = 0.00494 | residuals: Ux_init = 1 | FilledRatio = 0.00330239%

DILUPBiCGStab:  Solving for alpha, Initial residual = 0.808525, Final residual = 7.4093e-11, No Iterations 1
DILUPBiCGStab:  Solving for Ux, Initial residual = 1, Final residual = 6.74542e-06, No Iterations 1
DILUPBiCGStab:  Solving for Uy, Initial residual = 0.00594702, Final residual = 2.88434e-06, No Iterations 1
DILUPBiCGStab:  Solving for Uz, Initial residual = 0.00392559, Final residual = 2.45643e-06, No Iterations 1
DICPCG:  Solving for p, Initial residual = 1, Final residual = 0.046575, No Iterations 13
Time = 0.00495 | residuals: Ux_init = 1 | FilledRatio = 0.00327027%

DILUPBiCGStab:  Solving for alpha, Initial residual = 0.810032, Final residual = 7.57928e-11, No Iterations 1
DILUPBiCGStab:  Solving for Ux, Initial residual = 1, Final residual = 6.7669e-06, No Iterations 1
DILUPBiCGStab:  Solving for Uy, Initial residual = 0.00595651, Final residual = 2.84545e-06, No Iterations 1
DILUPBiCGStab:  Solving for Uz, Initial residual = 0.00392147, Final residual = 2.4177e-06, No Iterations 1
DICPCG:  Solving for p, Initial residual = 1, Final residual = 0.0467372, No Iterations 13
Time = 0.00496 | residuals: Ux_init = 1 | FilledRatio = 0.00323845%

DILUPBiCGStab:  Solving for alpha, Initial residual = 0.81153, Final residual = 7.75015e-11, No Iterations 1
DILUPBiCGStab:  Solving for Ux, Initial residual = 1, Final residual = 6.78475e-06, No Iterations 1
DILUPBiCGStab:  Solving for Uy, Initial residual = 0.00596629, Final residual = 2.80684e-06, No Iterations 1
DILUPBiCGStab:  Solving for Uz, Initial residual = 0.00391802, Final residual = 2.37923e-06, No Iterations 1
DICPCG:  Solving for p, Initial residual = 1, Final residual = 0.046881, No Iterations 13
Time = 0.00497 | residuals: Ux_init = 1 | FilledRatio = 0.00320693%

DILUPBiCGStab:  Solving for alpha, Initial residual = 0.81302, Final residual = 7.92191e-11, No Iterations 1
DILUPBiCGStab:  Solving for Ux, Initial residual = 1, Final residual = 6.79614e-06, No Iterations 1
DILUPBiCGStab:  Solving for Uy, Initial residual = 0.0059762, Final residual = 2.76868e-06, No Iterations 1
DILUPBiCGStab:  Solving for Uz, Initial residual = 0.00391549, Final residual = 2.34087e-06, No Iterations 1
DICPCG:  Solving for p, Initial residual = 1, Final residual = 0.0470183, No Iterations 13
Time = 0.00498 | residuals: Ux_init = 1 | FilledRatio = 0.0031757%

DILUPBiCGStab:  Solving for alpha, Initial residual = 0.814501, Final residual = 8.0945e-11, No Iterations 1
DILUPBiCGStab:  Solving for Ux, Initial residual = 1, Final residual = 6.80682e-06, No Iterations 1
DILUPBiCGStab:  Solving for Uy, Initial residual = 0.00598641, Final residual = 2.73153e-06, No Iterations 1
DILUPBiCGStab:  Solving for Uz, Initial residual = 0.0039128, Final residual = 2.30251e-06, No Iterations 1
DICPCG:  Solving for p, Initial residual = 1, Final residual = 0.0471455, No Iterations 13
Time = 0.00499 | residuals: Ux_init = 1 | FilledRatio = 0.00314475%

DILUPBiCGStab:  Solving for alpha, Initial residual = 0.815975, Final residual = 8.26762e-11, No Iterations 1
DILUPBiCGStab:  Solving for Ux, Initial residual = 1, Final residual = 6.81721e-06, No Iterations 1
DILUPBiCGStab:  Solving for Uy, Initial residual = 0.00599741, Final residual = 2.69481e-06, No Iterations 1
DILUPBiCGStab:  Solving for Uz, Initial residual = 0.00391039, Final residual = 2.26438e-06, No Iterations 1
DICPCG:  Solving for p, Initial residual = 1, Final residual = 0.0472593, No Iterations 13
Time = 0.005 | residuals: Ux_init = 1 | FilledRatio = 0.00311409%

End of injectionFoam simulation.

