/*---------------------------------------------------------------------------*\
  =========                 |
  \\      /  F ield         | OpenFOAM: The Open Source CFD Toolbox
   \\    /   O peration     | Website:  https://openfoam.org
    \\  /    A nd           | Version:  12
     \\/     M anipulation  |
\*---------------------------------------------------------------------------*/
/*   Windows 32 and 64 bit porting by blueCAPE: http://www.bluecape.com.pt   *\
|  Based on Windows porting (2.0.x v4) by Symscape: http://www.symscape.com   |
\*---------------------------------------------------------------------------*/
Build  : 12-8e8552546d20
Exec   : D:/Program-Files/blueCFD-Core-2024/ofuser-of12/platforms/mingw_w64Gcc122DPInt32Opt/bin/titanFoam.exe
Date   : May 31 2026
Time   : 15:54:47
Host   : "SAM1H"
PID    : 7476
I/O    : uncollated
Case   : D:/Open_code_project/injection_mold_flow/validation_test
nProcs : 1
SigFpe : Enabling floating point exception trapping (FOAM_SIGFPE).
fileModificationChecking : Monitoring run-time modified files using timeStampMaster (fileModificationSkew 10)
allowSystemOperations : Allowing user-supplied system call operations

// * * * * * * * * * * * * * * * * * * * * * * * * * * * * * * * * * * * * * //
Create time

Create mesh for time = 0

Reading field p

Reading field U

Reading field T (Temperature)

Reading field alpha (Volume Fraction)

Reading/calculating face flux field phi

Reading transportProperties

Reading thermal properties

Creating density field rho

Creating viscosity field mu

Creating thermal properties fields Cp and k

titanFoam v6.5 - FPE-HARDENED PIMPLE

Courant = 1e-30 | dt = 0.0011
DILUPBiCGStab:  Solving for alpha, Initial residual = 1, Final residual = 1.17643e-17, No Iterations 1
DILUPBiCGStab:  Solving for Ux, Initial residual = 1, Final residual = 0.000475669, No Iterations 1
DILUPBiCGStab:  Solving for Uy, Initial residual = 0, Final residual = 0, No Iterations 0
DILUPBiCGStab:  Solving for Uz, Initial residual = 0, Final residual = 0, No Iterations 0
DICPCG:  Solving for p, Initial residual = 1, Final residual = 0.00783314, No Iterations 53
DILUPBiCGStab:  Solving for Ux, Initial residual = 0.0160827, Final residual = 1.19083e-05, No Iterations 1
DILUPBiCGStab:  Solving for Uy, Initial residual = 0.33808, Final residual = 0.000304784, No Iterations 1
DILUPBiCGStab:  Solving for Uz, Initial residual = 0.259634, Final residual = 0.000119027, No Iterations 1
DICPCG:  Solving for p, Initial residual = 0.0232547, Final residual = 0.000187342, No Iterations 51
DILUPBiCGStab:  Solving for Ux, Initial residual = 0.00757501, Final residual = 6.44545e-06, No Iterations 1
DILUPBiCGStab:  Solving for Uy, Initial residual = 0.541784, Final residual = 0.000480026, No Iterations 1
DILUPBiCGStab:  Solving for Uz, Initial residual = 0.428539, Final residual = 0.000204978, No Iterations 1
DICPCG:  Solving for p, Initial residual = 0.0780753, Final residual = 0.000582265, No Iterations 51
Time = 0.001 | FilledRatio = 0.183333% | MaxP(MPa) = 8.07236 | AvgViscosity = 10 | Courant = 1e-30

Courant = 0.0289321 | dt = 0.00121
DILUPBiCGStab:  Solving for alpha, Initial residual = 0.219957, Final residual = 8.66001e-07, No Iterations 1
DILUPBiCGStab:  Solving for Ux, Initial residual = 0.0122277, Final residual = 9.54159e-06, No Iterations 1
DILUPBiCGStab:  Solving for Uy, Initial residual = 0.753456, Final residual = 0.000669825, No Iterations 1
DILUPBiCGStab:  Solving for Uz, Initial residual = 0.43542, Final residual = 0.000220987, No Iterations 1
DICPCG:  Solving for p, Initial residual = 0.0322656, Final residual = 0.000193893, No Iterations 53
DILUPBiCGStab:  Solving for Ux, Initial residual = 0.0147791, Final residual = 1.1942e-05, No Iterations 1
DILUPBiCGStab:  Solving for Uy, Initial residual = 0.573272, Final residual = 0.000506737, No Iterations 1
DILUPBiCGStab:  Solving for Uz, Initial residual = 0.401808, Final residual = 0.000215949, No Iterations 1
DICPCG:  Solving for p, Initial residual = 0.0537097, Final residual = 0.000375133, No Iterations 53
DILUPBiCGStab:  Solving for Ux, Initial residual = 0.0249567, Final residual = 1.98034e-05, No Iterations 1
DILUPBiCGStab:  Solving for Uy, Initial residual = 0.709715, Final residual = 0.00062227, No Iterations 1
DILUPBiCGStab:  Solving for Uz, Initial residual = 0.397297, Final residual = 0.000224141, No Iterations 1
DICPCG:  Solving for p, Initial residual = 0.0382637, Final residual = 0.000321087, No Iterations 53
Time = 0.0021 | FilledRatio = 0.384999% | MaxP(MPa) = 0 | AvgViscosity = 10 | Courant = 0.0289321

Courant = 0.0582756 | dt = 0.001331
DILUPBiCGStab:  Solving for alpha, Initial residual = 0.130477, Final residual = 3.27799e-06, No Iterations 1
DILUPBiCGStab:  Solving for Ux, Initial residual = 0.00761605, Final residual = 6.83459e-06, No Iterations 1
DILUPBiCGStab:  Solving for Uy, Initial residual = 0.640516, Final residual = 0.000195053, No Iterations 1
DILUPBiCGStab:  Solving for Uz, Initial residual = 0.341352, Final residual = 0.000157401, No Iterations 1
DICPCG:  Solving for p, Initial residual = 1, Final residual = 0.00890966, No Iterations 56
DILUPBiCGStab:  Solving for Ux, Initial residual = 0.00402832, Final residual = 3.74395e-06, No Iterations 1
DILUPBiCGStab:  Solving for Uy, Initial residual = 0.21364, Final residual = 0.000257567, No Iterations 1
DILUPBiCGStab:  Solving for Uz, Initial residual = 0.468764, Final residual = 0.000283368, No Iterations 1
DICPCG:  Solving for p, Initial residual = 0.0217765, Final residual = 0.000216545, No Iterations 56
DILUPBiCGStab:  Solving for Ux, Initial residual = 0.00246557, Final residual = 1.71501e-06, No Iterations 1
DILUPBiCGStab:  Solving for Uy, Initial residual = 0.681144, Final residual = 0.000634946, No Iterations 1
DILUPBiCGStab:  Solving for Uz, Initial residual = 0.401573, Final residual = 0.00029075, No Iterations 1
DICPCG:  Solving for p, Initial residual = 0.186438, Final residual = 0.00167836, No Iterations 55
Time = 0.00331 | FilledRatio = 0.606828% | MaxP(MPa) = 4.06864 | AvgViscosity = 10 | Courant = 0.0582756

Courant = 0.0410379 | dt = 0.0014641
DILUPBiCGStab:  Solving for alpha, Initial residual = 0.0957175, Final residual = 1.19267e-06, No Iterations 1
DILUPBiCGStab:  Solving for Ux, Initial residual = 0.00373061, Final residual = 3.09834e-06, No Iterations 1
DILUPBiCGStab:  Solving for Uy, Initial residual = 0.310356, Final residual = 0.000300341, No Iterations 1
DILUPBiCGStab:  Solving for Uz, Initial residual = 0.539131, Final residual = 0.000481361, No Iterations 1
DICPCG:  Solving for p, Initial residual = 0.024054, Final residual = 0.000171594, No Iterations 55
DILUPBiCGStab:  Solving for Ux, Initial residual = 0.00496831, Final residual = 3.96479e-06, No Iterations 1
DILUPBiCGStab:  Solving for Uy, Initial residual = 0.567781, Final residual = 0.000545206, No Iterations 1
DILUPBiCGStab:  Solving for Uz, Initial residual = 0.47882, Final residual = 0.000493581, No Iterations 1
DICPCG:  Solving for p, Initial residual = 0.108635, Final residual = 0.00101137, No Iterations 53
DILUPBiCGStab:  Solving for Ux, Initial residual = 0.00770773, Final residual = 6.17817e-06, No Iterations 1
DILUPBiCGStab:  Solving for Uy, Initial residual = 0.45818, Final residual = 0.000446675, No Iterations 1
DILUPBiCGStab:  Solving for Uz, Initial residual = 0.504588, Final residual = 0.000580899, No Iterations 1
DICPCG:  Solving for p, Initial residual = 0.0333434, Final residual = 0.000230877, No Iterations 53
Time = 0.004641 | FilledRatio = 0.850842% | MaxP(MPa) = 0 | AvgViscosity = 10 | Courant = 0.0410379

Courant = 0.0550101 | dt = 0.00161051
DILUPBiCGStab:  Solving for alpha, Initial residual = 0.077107, Final residual = 1.6213e-06, No Iterations 1
DILUPBiCGStab:  Solving for Ux, Initial residual = 0.00241034, Final residual = 3.40943e-06, No Iterations 1
DILUPBiCGStab:  Solving for Uy, Initial residual = 0.37381, Final residual = 0.000392764, No Iterations 1
DILUPBiCGStab:  Solving for Uz, Initial residual = 0.389016, Final residual = 0.000170373, No Iterations 1
DICPCG:  Solving for p, Initial residual = 1, Final residual = 0.00889424, No Iterations 54
DILUPBiCGStab:  Solving for Ux, Initial residual = 0.00432887, Final residual = 3.76727e-06, No Iterations 1
DILUPBiCGStab:  Solving for Uy, Initial residual = 0.103387, Final residual = 0.000119916, No Iterations 1
DILUPBiCGStab:  Solving for Uz, Initial residual = 0.352766, Final residual = 0.000183722, No Iterations 1
DICPCG:  Solving for p, Initial residual = 0.0209124, Final residual = 0.000208496, No Iterations 50
DILUPBiCGStab:  Solving for Ux, Initial residual = 0.00432138, Final residual = 3.42306e-06, No Iterations 1
DILUPBiCGStab:  Solving for Uy, Initial residual = 0.229797, Final residual = 0.000209605, No Iterations 1
DILUPBiCGStab:  Solving for Uz, Initial residual = 0.328119, Final residual = 0.000187215, No Iterations 1
DICPCG:  Solving for p, Initial residual = 0.137628, Final residual = 0.00119968, No Iterations 51
Time = 0.0061051 | FilledRatio = 1.11926% | MaxP(MPa) = 5.6599 | AvgViscosity = 10 | Courant = 0.0550101

Courant = 0.0482425 | dt = 0.00177156
DILUPBiCGStab:  Solving for alpha, Initial residual = 0.0655024, Final residual = 1.06236e-06, No Iterations 1
DILUPBiCGStab:  Solving for Ux, Initial residual = 0.00651099, Final residual = 5.2518e-06, No Iterations 1
DILUPBiCGStab:  Solving for Uy, Initial residual = 0.865105, Final residual = 0.000765779, No Iterations 1
DILUPBiCGStab:  Solving for Uz, Initial residual = 0.417455, Final residual = 0.000263398, No Iterations 1
DICPCG:  Solving for p, Initial residual = 0.0290871, Final residual = 0.000167813, No Iterations 53
DILUPBiCGStab:  Solving for Ux, Initial residual = 0.00895815, Final residual = 7.19634e-06, No Iterations 1
DILUPBiCGStab:  Solving for Uy, Initial residual = 0.481425, Final residual = 0.000427555, No Iterations 1
DILUPBiCGStab:  Solving for Uz, Initial residual = 0.439199, Final residual = 0.000295894, No Iterations 1
DICPCG:  Solving for p, Initial residual = 0.0656354, Final residual = 0.00051153, No Iterations 53
DILUPBiCGStab:  Solving for Ux, Initial residual = 0.0145574, Final residual = 1.16365e-05, No Iterations 1
DILUPBiCGStab:  Solving for Uy, Initial residual = 0.75469, Final residual = 0.000662376, No Iterations 1
DILUPBiCGStab:  Solving for Uz, Initial residual = 0.423037, Final residual = 0.000303143, No Iterations 1
DICPCG:  Solving for p, Initial residual = 0.0368296, Final residual = 0.000354199, No Iterations 53
Time = 0.00771561 | FilledRatio = 1.41451% | MaxP(MPa) = 0 | AvgViscosity = 10 | Courant = 0.0482425

Courant = 0.0745727 | dt = 0.00194872
DILUPBiCGStab:  Solving for alpha, Initial residual = 0.0575988, Final residual = 2.5564e-06, No Iterations 1
DILUPBiCGStab:  Solving for Ux, Initial residual = 0.00434059, Final residual = 5.90076e-06, No Iterations 1
DILUPBiCGStab:  Solving for Uy, Initial residual = 0.596463, Final residual = 0.00021949, No Iterations 1
DILUPBiCGStab:  Solving for Uz, Initial residual = 0.315401, Final residual = 0.000144185, No Iterations 1
DICPCG:  Solving for p, Initial residual = 1, Final residual = 0.00738198, No Iterations 56
DILUPBiCGStab:  Solving for Ux, Initial residual = 0.00418835, Final residual = 3.8623e-06, No Iterations 1
DILUPBiCGStab:  Solving for Uy, Initial residual = 0.179141, Final residual = 0.000230517, No Iterations 1
DILUPBiCGStab:  Solving for Uz, Initial residual = 0.44182, Final residual = 0.000244557, No Iterations 1
DICPCG:  Solving for p, Initial residual = 0.0203806, Final residual = 0.000161164, No Iterations 55
DILUPBiCGStab:  Solving for Ux, Initial residual = 0.00353072, Final residual = 2.69052e-06, No Iterations 1
DILUPBiCGStab:  Solving for Uy, Initial residual = 0.293676, Final residual = 0.000296316, No Iterations 1
DILUPBiCGStab:  Solving for Uz, Initial residual = 0.380479, Final residual = 0.000235239, No Iterations 1
DICPCG:  Solving for p, Initial residual = 0.236504, Final residual = 0.00135295, No Iterations 53
Time = 0.00948717 | FilledRatio = 1.73929% | MaxP(MPa) = 4.9631 | AvgViscosity = 10 | Courant = 0.0745727

Courant = 0.0586063 | dt = 0.00214359
DILUPBiCGStab:  Solving for alpha, Initial residual = 0.0519898, Final residual = 1.40991e-06, No Iterations 1
DILUPBiCGStab:  Solving for Ux, Initial residual = 0.00531418, Final residual = 4.33141e-06, No Iterations 1
DILUPBiCGStab:  Solving for Uy, Initial residual = 0.184238, Final residual = 0.00017668, No Iterations 1
DILUPBiCGStab:  Solving for Uz, Initial residual = 0.560701, Final residual = 0.000408821, No Iterations 1
DICPCG:  Solving for p, Initial residual = 0.0267023, Final residual = 0.000134236, No Iterations 51
DILUPBiCGStab:  Solving for Ux, Initial residual = 0.00726433, Final residual = 5.83047e-06, No Iterations 1
DILUPBiCGStab:  Solving for Uy, Initial residual = 0.196821, Final residual = 0.000180236, No Iterations 1
DILUPBiCGStab:  Solving for Uz, Initial residual = 0.46344, Final residual = 0.00037988, No Iterations 1
DICPCG:  Solving for p, Initial residual = 0.0729777, Final residual = 0.00061697, No Iterations 47
DILUPBiCGStab:  Solving for Ux, Initial residual = 0.0116146, Final residual = 9.30271e-06, No Iterations 1
DILUPBiCGStab:  Solving for Uy, Initial residual = 0.729597, Final residual = 0.000647677, No Iterations 1
DILUPBiCGStab:  Solving for Uz, Initial residual = 0.472893, Final residual = 0.000420521, No Iterations 1
DICPCG:  Solving for p, Initial residual = 0.0349647, Final residual = 0.000309807, No Iterations 50
Time = 0.0114359 | FilledRatio = 2.09655% | MaxP(MPa) = 0 | AvgViscosity = 10 | Courant = 0.0586063

Courant = 0.0858244 | dt = 0.00235795
DILUPBiCGStab:  Solving for alpha, Initial residual = 0.0477789, Final residual = 2.86573e-06, No Iterations 1
DILUPBiCGStab:  Solving for Ux, Initial residual = 0.0033631, Final residual = 5.04634e-06, No Iterations 1
DILUPBiCGStab:  Solving for Uy, Initial residual = 0.417418, Final residual = 0.000266841, No Iterations 1
DILUPBiCGStab:  Solving for Uz, Initial residual = 0.352274, Final residual = 0.000157931, No Iterations 1
DICPCG:  Solving for p, Initial residual = 1, Final residual = 0.00873584, No Iterations 55
DILUPBiCGStab:  Solving for Ux, Initial residual = 0.00425791, Final residual = 3.85307e-06, No Iterations 1
DILUPBiCGStab:  Solving for Uy, Initial residual = 0.129122, Final residual = 0.000153971, No Iterations 1
DILUPBiCGStab:  Solving for Uz, Initial residual = 0.435339, Final residual = 0.000224083, No Iterations 1
DICPCG:  Solving for p, Initial residual = 0.0203737, Final residual = 0.000160808, No Iterations 53
DILUPBiCGStab:  Solving for Ux, Initial residual = 0.00388372, Final residual = 3.0186e-06, No Iterations 1
DILUPBiCGStab:  Solving for Uy, Initial residual = 0.107358, Final residual = 0.000109607, No Iterations 1
DILUPBiCGStab:  Solving for Uz, Initial residual = 0.395283, Final residual = 0.000239554, No Iterations 1
DICPCG:  Solving for p, Initial residual = 0.172273, Final residual = 0.0011548, No Iterations 51
Time = 0.0135795 | FilledRatio = 2.48952% | MaxP(MPa) = 5.27567 | AvgViscosity = 10 | Courant = 0.0858244

Courant = 0.0707842 | dt = 0.00259374
DILUPBiCGStab:  Solving for alpha, Initial residual = 0.04461, Final residual = 1.75508e-06, No Iterations 1
DILUPBiCGStab:  Solving for Ux, Initial residual = 0.00585546, Final residual = 4.75412e-06, No Iterations 1
DILUPBiCGStab:  Solving for Uy, Initial residual = 0.653616, Final residual = 0.000582981, No Iterations 1
DILUPBiCGStab:  Solving for Uz, Initial residual = 0.473914, Final residual = 0.000314119, No Iterations 1
DICPCG:  Solving for p, Initial residual = 0.0275078, Final residual = 0.000227427, No Iterations 51
DILUPBiCGStab:  Solving for Ux, Initial residual = 0.00804053, Final residual = 6.46302e-06, No Iterations 1
DILUPBiCGStab:  Solving for Uy, Initial residual = 0.387893, Final residual = 0.000346979, No Iterations 1
DILUPBiCGStab:  Solving for Uz, Initial residual = 0.387167, Final residual = 0.000276702, No Iterations 1
DICPCG:  Solving for p, Initial residual = 0.068344, Final residual = 0.000469706, No Iterations 53
DILUPBiCGStab:  Solving for Ux, Initial residual = 0.0129654, Final residual = 1.03858e-05, No Iterations 1
DILUPBiCGStab:  Solving for Uy, Initial residual = 0.754705, Final residual = 0.000664884, No Iterations 1
DILUPBiCGStab:  Solving for Uz, Initial residual = 0.480643, Final residual = 0.00037028, No Iterations 1
DICPCG:  Solving for p, Initial residual = 0.0355, Final residual = 0.000315131, No Iterations 53
Time = 0.0159374 | FilledRatio = 2.9218% | MaxP(MPa) = 0 | AvgViscosity = 10 | Courant = 0.0707842

Courant = 0.105976 | dt = 0.00285312
DILUPBiCGStab:  Solving for alpha, Initial residual = 0.0420508, Final residual = 3.88728e-06, No Iterations 1
DILUPBiCGStab:  Solving for Ux, Initial residual = 0.00381123, Final residual = 5.49674e-06, No Iterations 1
DILUPBiCGStab:  Solving for Uy, Initial residual = 0.488993, Final residual = 0.000212851, No Iterations 1
DILUPBiCGStab:  Solving for Uz, Initial residual = 0.354005, Final residual = 0.00016163, No Iterations 1
DICPCG:  Solving for p, Initial residual = 1, Final residual = 0.00956712, No Iterations 55
DILUPBiCGStab:  Solving for Ux, Initial residual = 0.00422825, Final residual = 3.866e-06, No Iterations 1
DILUPBiCGStab:  Solving for Uy, Initial residual = 0.162425, Final residual = 0.000211728, No Iterations 1
DILUPBiCGStab:  Solving for Uz, Initial residual = 0.455972, Final residual = 0.000258458, No Iterations 1
DICPCG:  Solving for p, Initial residual = 0.0204067, Final residual = 0.000180621, No Iterations 54
DILUPBiCGStab:  Solving for Ux, Initial residual = 0.00372605, Final residual = 2.87399e-06, No Iterations 1
DILUPBiCGStab:  Solving for Uy, Initial residual = 0.150826, Final residual = 0.000159932, No Iterations 1
DILUPBiCGStab:  Solving for Uz, Initial residual = 0.36671, Final residual = 0.000224225, No Iterations 1
DICPCG:  Solving for p, Initial residual = 0.195314, Final residual = 0.00182659, No Iterations 51
Time = 0.0185312 | FilledRatio = 3.37905% | MaxP(MPa) = 5.13372 | AvgViscosity = 10 | Courant = 0.105976

Courant = 0.0857144 | dt = 0.00313843
DILUPBiCGStab:  Solving for alpha, Initial residual = 0.0402651, Final residual = 2.37441e-06, No Iterations 1
DILUPBiCGStab:  Solving for Ux, Initial residual = 0.00561866, Final residual = 4.57339e-06, No Iterations 1
DILUPBiCGStab:  Solving for Uy, Initial residual = 0.340207, Final residual = 0.000314999, No Iterations 1
DILUPBiCGStab:  Solving for Uz, Initial residual = 0.441789, Final residual = 0.000307123, No Iterations 1
DICPCG:  Solving for p, Initial residual = 0.0274744, Final residual = 0.000171556, No Iterations 51
DILUPBiCGStab:  Solving for Ux, Initial residual = 0.00770794, Final residual = 6.1969e-06, No Iterations 1
DILUPBiCGStab:  Solving for Uy, Initial residual = 0.325148, Final residual = 0.000294649, No Iterations 1
DILUPBiCGStab:  Solving for Uz, Initial residual = 0.499626, Final residual = 0.000371283, No Iterations 1
DICPCG:  Solving for p, Initial residual = 0.070907, Final residual = 0.000692983, No Iterations 51
DILUPBiCGStab:  Solving for Ux, Initial residual = 0.012393, Final residual = 9.93469e-06, No Iterations 1
DILUPBiCGStab:  Solving for Uy, Initial residual = 0.727272, Final residual = 0.000643135, No Iterations 1
DILUPBiCGStab:  Solving for Uz, Initial residual = 0.402774, Final residual = 0.000314592, No Iterations 1
DICPCG:  Solving for p, Initial residual = 0.0355993, Final residual = 0.000302605, No Iterations 53
Time = 0.0213843 | FilledRatio = 3.72817% | MaxP(MPa) = 0 | AvgViscosity = 10 | Courant = 0.0857144

Courant = 0.127144 | dt = 0.00345227
DILUPBiCGStab:  Solving for alpha, Initial residual = 0.0403272, Final residual = 5.37719e-06, No Iterations 1
DILUPBiCGStab:  Solving for Ux, Initial residual = 0.00362855, Final residual = 5.32973e-06, No Iterations 1
DILUPBiCGStab:  Solving for Uy, Initial residual = 0.489687, Final residual = 0.000247026, No Iterations 1
DILUPBiCGStab:  Solving for Uz, Initial residual = 0.364168, Final residual = 0.000163853, No Iterations 1
DICPCG:  Solving for p, Initial residual = 1, Final residual = 0.00909929, No Iterations 55
DILUPBiCGStab:  Solving for Ux, Initial residual = 0.00424644, Final residual = 3.86878e-06, No Iterations 1
DILUPBiCGStab:  Solving for Uy, Initial residual = 0.147103, Final residual = 0.000191387, No Iterations 1
DILUPBiCGStab:  Solving for Uz, Initial residual = 0.441323, Final residual = 0.000236608, No Iterations 1
DICPCG:  Solving for p, Initial residual = 0.0202466, Final residual = 0.00018499, No Iterations 53
DILUPBiCGStab:  Solving for Ux, Initial residual = 0.00380115, Final residual = 2.94395e-06, No Iterations 1
DILUPBiCGStab:  Solving for Uy, Initial residual = 0.0942659, Final residual = 0.000102361, No Iterations 1
DILUPBiCGStab:  Solving for Uz, Initial residual = 0.387248, Final residual = 0.000230162, No Iterations 1
DICPCG:  Solving for p, Initial residual = 0.181919, Final residual = 0.00148604, No Iterations 50
Time = 0.0245227 | FilledRatio = 4.07981% | MaxP(MPa) = 5.20435 | AvgViscosity = 10 | Courant = 0.127144

Courant = 0.103673 | dt = 0.0037975
DILUPBiCGStab:  Solving for alpha, Initial residual = 0.0407161, Final residual = 3.48829e-06, No Iterations 1
DILUPBiCGStab:  Solving for Ux, Initial residual = 0.00573582, Final residual = 4.66695e-06, No Iterations 1
DILUPBiCGStab:  Solving for Uy, Initial residual = 0.494897, Final residual = 0.000441775, No Iterations 1
DILUPBiCGStab:  Solving for Uz, Initial residual = 0.458275, Final residual = 0.000305908, No Iterations 1
DICPCG:  Solving for p, Initial residual = 0.0273226, Final residual = 0.0002421, No Iterations 50
DILUPBiCGStab:  Solving for Ux, Initial residual = 0.00787592, Final residual = 6.33601e-06, No Iterations 1
DILUPBiCGStab:  Solving for Uy, Initial residual = 0.360103, Final residual = 0.000321929, No Iterations 1
DILUPBiCGStab:  Solving for Uz, Initial residual = 0.401372, Final residual = 0.00029368, No Iterations 1
DICPCG:  Solving for p, Initial residual = 0.069401, Final residual = 0.00041116, No Iterations 53
DILUPBiCGStab:  Solving for Ux, Initial residual = 0.0126884, Final residual = 1.01753e-05, No Iterations 1
DILUPBiCGStab:  Solving for Uy, Initial residual = 0.775236, Final residual = 0.000682705, No Iterations 1
DILUPBiCGStab:  Solving for Uz, Initial residual = 0.516714, Final residual = 0.00041625, No Iterations 1
DICPCG:  Solving for p, Initial residual = 0.0356735, Final residual = 0.000273372, No Iterations 53
Time = 0.027975 | FilledRatio = 4.37005% | MaxP(MPa) = 0 | AvgViscosity = 10 | Courant = 0.103673

Courant = 0.1545 | dt = 0.00417725
DILUPBiCGStab:  Solving for alpha, Initial residual = 0.0419608, Final residual = 7.92238e-06, No Iterations 1
DILUPBiCGStab:  Solving for Ux, Initial residual = 0.00372544, Final residual = 5.42386e-06, No Iterations 1
DILUPBiCGStab:  Solving for Uy, Initial residual = 0.491216, Final residual = 0.000227247, No Iterations 1
DILUPBiCGStab:  Solving for Uz, Initial residual = 0.388355, Final residual = 0.000172523, No Iterations 1
DICPCG:  Solving for p, Initial residual = 1, Final residual = 0.00939644, No Iterations 55
DILUPBiCGStab:  Solving for Ux, Initial residual = 0.00423888, Final residual = 3.87195e-06, No Iterations 1
DILUPBiCGStab:  Solving for Uy, Initial residual = 0.152983, Final residual = 0.0001982, No Iterations 1
DILUPBiCGStab:  Solving for Uz, Initial residual = 0.436073, Final residual = 0.000230202, No Iterations 1
DICPCG:  Solving for p, Initial residual = 0.0202013, Final residual = 0.000169608, No Iterations 54
DILUPBiCGStab:  Solving for Ux, Initial residual = 0.00376512, Final residual = 2.91192e-06, No Iterations 1
DILUPBiCGStab:  Solving for Uy, Initial residual = 0.123273, Final residual = 0.000132487, No Iterations 1
DILUPBiCGStab:  Solving for Uz, Initial residual = 0.351036, Final residual = 0.000199902, No Iterations 1
DICPCG:  Solving for p, Initial residual = 0.187503, Final residual = 0.00146174, No Iterations 51
Time = 0.0317725 | FilledRatio = 4.64469% | MaxP(MPa) = 5.17148 | AvgViscosity = 10 | Courant = 0.1545

Courant = 0.12546 | dt = 0.00459497
DILUPBiCGStab:  Solving for alpha, Initial residual = 0.043628, Final residual = 5.1588e-06, No Iterations 1
DILUPBiCGStab:  Solving for Ux, Initial residual = 0.00568247, Final residual = 4.62738e-06, No Iterations 1
DILUPBiCGStab:  Solving for Uy, Initial residual = 0.423772, Final residual = 0.000383186, No Iterations 1
DILUPBiCGStab:  Solving for Uz, Initial residual = 0.450663, Final residual = 0.000292474, No Iterations 1
DICPCG:  Solving for p, Initial residual = 0.0272679, Final residual = 0.000143444, No Iterations 51
DILUPBiCGStab:  Solving for Ux, Initial residual = 0.00780096, Final residual = 6.27769e-06, No Iterations 1
DILUPBiCGStab:  Solving for Uy, Initial residual = 0.33514, Final residual = 0.000301025, No Iterations 1
DILUPBiCGStab:  Solving for Uz, Initial residual = 0.470336, Final residual = 0.000329245, No Iterations 1
DICPCG:  Solving for p, Initial residual = 0.0696035, Final residual = 0.000695038, No Iterations 51
DILUPBiCGStab:  Solving for Ux, Initial residual = 0.0125612, Final residual = 1.00776e-05, No Iterations 1
DILUPBiCGStab:  Solving for Uy, Initial residual = 0.74054, Final residual = 0.000653669, No Iterations 1
DILUPBiCGStab:  Solving for Uz, Initial residual = 0.376498, Final residual = 0.00028084, No Iterations 1
DICPCG:  Solving for p, Initial residual = 0.0353026, Final residual = 0.00029355, No Iterations 53
Time = 0.0359497 | FilledRatio = 4.91878% | MaxP(MPa) = 0 | AvgViscosity = 10 | Courant = 0.12546

Courant = 0.186628 | dt = 0.005
DILUPBiCGStab:  Solving for alpha, Initial residual = 0.0449987, Final residual = 1.1446e-05, No Iterations 1
DILUPBiCGStab:  Solving for Ux, Initial residual = 0.00368514, Final residual = 5.38795e-06, No Iterations 1
DILUPBiCGStab:  Solving for Uy, Initial residual = 0.494265, Final residual = 0.000241915, No Iterations 1
DILUPBiCGStab:  Solving for Uz, Initial residual = 0.341697, Final residual = 0.000155975, No Iterations 1
DICPCG:  Solving for p, Initial residual = 1, Final residual = 0.00921425, No Iterations 55
DILUPBiCGStab:  Solving for Ux, Initial residual = 0.00424282, Final residual = 3.87342e-06, No Iterations 1
DILUPBiCGStab:  Solving for Uy, Initial residual = 0.148854, Final residual = 0.000192714, No Iterations 1
DILUPBiCGStab:  Solving for Uz, Initial residual = 0.446944, Final residual = 0.000238622, No Iterations 1
DICPCG:  Solving for p, Initial residual = 0.0202686, Final residual = 0.000193756, No Iterations 53
DILUPBiCGStab:  Solving for Ux, Initial residual = 0.00378238, Final residual = 2.9285e-06, No Iterations 1
DILUPBiCGStab:  Solving for Uy, Initial residual = 0.103678, Final residual = 0.000112352, No Iterations 1
DILUPBiCGStab:  Solving for Uz, Initial residual = 0.389588, Final residual = 0.000234008, No Iterations 1
DICPCG:  Solving for p, Initial residual = 0.184923, Final residual = 0.00178376, No Iterations 50
Time = 0.0405447 | FilledRatio = 5.2277% | MaxP(MPa) = 5.18909 | AvgViscosity = 10 | Courant = 0.186628

Courant = 0.150159 | dt = 0.005
DILUPBiCGStab:  Solving for alpha, Initial residual = 0.0427326, Final residual = 5.5986e-06, No Iterations 1
DILUPBiCGStab:  Solving for Ux, Initial residual = 0.00571073, Final residual = 4.65018e-06, No Iterations 1
DILUPBiCGStab:  Solving for Uy, Initial residual = 0.481388, Final residual = 0.000433292, No Iterations 1
DILUPBiCGStab:  Solving for Uz, Initial residual = 0.447668, Final residual = 0.000304936, No Iterations 1
DICPCG:  Solving for p, Initial residual = 0.0273949, Final residual = 0.00024992, No Iterations 50
DILUPBiCGStab:  Solving for Ux, Initial residual = 0.00784304, Final residual = 6.31271e-06, No Iterations 1
DILUPBiCGStab:  Solving for Uy, Initial residual = 0.352906, Final residual = 0.000316206, No Iterations 1
DILUPBiCGStab:  Solving for Uz, Initial residual = 0.401687, Final residual = 0.000303371, No Iterations 1
DICPCG:  Solving for p, Initial residual = 0.0699037, Final residual = 0.000421378, No Iterations 53
DILUPBiCGStab:  Solving for Ux, Initial residual = 0.012636, Final residual = 1.01388e-05, No Iterations 1
DILUPBiCGStab:  Solving for Uy, Initial residual = 0.777169, Final residual = 0.000684856, No Iterations 1
DILUPBiCGStab:  Solving for Uz, Initial residual = 0.531752, Final residual = 0.000446208, No Iterations 1
DICPCG:  Solving for p, Initial residual = 0.0358454, Final residual = 0.000278033, No Iterations 53
Time = 0.0455447 | FilledRatio = 5.52813% | MaxP(MPa) = 0 | AvgViscosity = 10 | Courant = 0.150159

Courant = 0.203266 | dt = 0.005
DILUPBiCGStab:  Solving for alpha, Initial residual = 0.0407668, Final residual = 9.78711e-06, No Iterations 1
DILUPBiCGStab:  Solving for Ux, Initial residual = 0.00371156, Final residual = 5.41263e-06, No Iterations 1
DILUPBiCGStab:  Solving for Uy, Initial residual = 0.487955, Final residual = 0.00022908, No Iterations 1
DILUPBiCGStab:  Solving for Uz, Initial residual = 0.390796, Final residual = 0.000172259, No Iterations 1
DICPCG:  Solving for p, Initial residual = 1, Final residual = 0.00934429, No Iterations 55
DILUPBiCGStab:  Solving for Ux, Initial residual = 0.00424212, Final residual = 3.87482e-06, No Iterations 1
DILUPBiCGStab:  Solving for Uy, Initial residual = 0.151426, Final residual = 0.000196718, No Iterations 1
DILUPBiCGStab:  Solving for Uz, Initial residual = 0.43523, Final residual = 0.000229643, No Iterations 1
DICPCG:  Solving for p, Initial residual = 0.0201809, Final residual = 0.000201107, No Iterations 53
DILUPBiCGStab:  Solving for Ux, Initial residual = 0.00377419, Final residual = 2.92081e-06, No Iterations 1
DILUPBiCGStab:  Solving for Uy, Initial residual = 0.115733, Final residual = 0.000124747, No Iterations 1
DILUPBiCGStab:  Solving for Uz, Initial residual = 0.369618, Final residual = 0.000211274, No Iterations 1
DICPCG:  Solving for p, Initial residual = 0.185285, Final residual = 0.00131477, No Iterations 51
Time = 0.0505447 | FilledRatio = 5.83706% | MaxP(MPa) = 5.18105 | AvgViscosity = 10 | Courant = 0.203266

Courant = 0.150165 | dt = 0.005
DILUPBiCGStab:  Solving for alpha, Initial residual = 0.0389589, Final residual = 4.74678e-06, No Iterations 1
DILUPBiCGStab:  Solving for Ux, Initial residual = 0.00569818, Final residual = 4.64048e-06, No Iterations 1
DILUPBiCGStab:  Solving for Uy, Initial residual = 0.44889, Final residual = 0.000404319, No Iterations 1
DILUPBiCGStab:  Solving for Uz, Initial residual = 0.463154, Final residual = 0.000296838, No Iterations 1
DICPCG:  Solving for p, Initial residual = 0.027183, Final residual = 0.000260478, No Iterations 50
DILUPBiCGStab:  Solving for Ux, Initial residual = 0.0078242, Final residual = 6.29746e-06, No Iterations 1
DILUPBiCGStab:  Solving for Uy, Initial residual = 0.338229, Final residual = 0.000303444, No Iterations 1
DILUPBiCGStab:  Solving for Uz, Initial residual = 0.36248, Final residual = 0.000245772, No Iterations 1
DICPCG:  Solving for p, Initial residual = 0.0693585, Final residual = 0.000420874, No Iterations 53
DILUPBiCGStab:  Solving for Ux, Initial residual = 0.012603, Final residual = 1.01125e-05, No Iterations 1
DILUPBiCGStab:  Solving for Uy, Initial residual = 0.780043, Final residual = 0.000687931, No Iterations 1
DILUPBiCGStab:  Solving for Uz, Initial residual = 0.492937, Final residual = 0.000363815, No Iterations 1
DICPCG:  Solving for p, Initial residual = 0.0354151, Final residual = 0.000283462, No Iterations 53
Time = 0.0555447 | FilledRatio = 6.13749% | MaxP(MPa) = 0 | AvgViscosity = 10 | Courant = 0.150165

Courant = 0.203188 | dt = 0.005
DILUPBiCGStab:  Solving for alpha, Initial residual = 0.0372897, Final residual = 8.48732e-06, No Iterations 1
DILUPBiCGStab:  Solving for Ux, Initial residual = 0.00370022, Final residual = 5.40207e-06, No Iterations 1
DILUPBiCGStab:  Solving for Uy, Initial residual = 0.487248, Final residual = 0.000233941, No Iterations 1
DILUPBiCGStab:  Solving for Uz, Initial residual = 0.357672, Final residual = 0.000161377, No Iterations 1
DICPCG:  Solving for p, Initial residual = 1, Final residual = 0.00930095, No Iterations 55
DILUPBiCGStab:  Solving for Ux, Initial residual = 0.0042424, Final residual = 3.87422e-06, No Iterations 1
DILUPBiCGStab:  Solving for Uy, Initial residual = 0.149564, Final residual = 0.000193656, No Iterations 1
DILUPBiCGStab:  Solving for Uz, Initial residual = 0.440657, Final residual = 0.000232882, No Iterations 1
DICPCG:  Solving for p, Initial residual = 0.0202086, Final residual = 0.00019902, No Iterations 53
DILUPBiCGStab:  Solving for Ux, Initial residual = 0.00377756, Final residual = 2.924e-06, No Iterations 1
DILUPBiCGStab:  Solving for Uy, Initial residual = 0.106561, Final residual = 0.000115134, No Iterations 1
DILUPBiCGStab:  Solving for Uz, Initial residual = 0.383194, Final residual = 0.000224138, No Iterations 1
DICPCG:  Solving for p, Initial residual = 0.185018, Final residual = 0.00117513, No Iterations 51
Time = 0.0605447 | FilledRatio = 6.44642% | MaxP(MPa) = 5.18443 | AvgViscosity = 10 | Courant = 0.203188

Courant = 0.150162 | dt = 0.005
DILUPBiCGStab:  Solving for alpha, Initial residual = 0.0357366, Final residual = 4.07838e-06, No Iterations 1
DILUPBiCGStab:  Solving for Ux, Initial residual = 0.00570334, Final residual = 4.64445e-06, No Iterations 1
DILUPBiCGStab:  Solving for Uy, Initial residual = 0.466282, Final residual = 0.00041932, No Iterations 1
DILUPBiCGStab:  Solving for Uz, Initial residual = 0.493673, Final residual = 0.000318958, No Iterations 1
DICPCG:  Solving for p, Initial residual = 0.0272166, Final residual = 0.000260231, No Iterations 50
DILUPBiCGStab:  Solving for Ux, Initial residual = 0.00783182, Final residual = 6.30363e-06, No Iterations 1
DILUPBiCGStab:  Solving for Uy, Initial residual = 0.344895, Final residual = 0.000309013, No Iterations 1
DILUPBiCGStab:  Solving for Uz, Initial residual = 0.37148, Final residual = 0.00026172, No Iterations 1
DICPCG:  Solving for p, Initial residual = 0.0694576, Final residual = 0.000407431, No Iterations 53
DILUPBiCGStab:  Solving for Ux, Initial residual = 0.0126163, Final residual = 1.01231e-05, No Iterations 1
DILUPBiCGStab:  Solving for Uy, Initial residual = 0.777585, Final residual = 0.000685378, No Iterations 1
DILUPBiCGStab:  Solving for Uz, Initial residual = 0.527945, Final residual = 0.000409843, No Iterations 1
DICPCG:  Solving for p, Initial residual = 0.0355089, Final residual = 0.000284692, No Iterations 53
Time = 0.0655447 | FilledRatio = 6.74684% | MaxP(MPa) = 0 | AvgViscosity = 10 | Courant = 0.150162

Courant = 0.203216 | dt = 0.005
DILUPBiCGStab:  Solving for alpha, Initial residual = 0.0343668, Final residual = 7.39735e-06, No Iterations 1
DILUPBiCGStab:  Solving for Ux, Initial residual = 0.0037047, Final residual = 5.40626e-06, No Iterations 1
DILUPBiCGStab:  Solving for Uy, Initial residual = 0.491835, Final residual = 0.000233443, No Iterations 1
DILUPBiCGStab:  Solving for Uz, Initial residual = 0.359922, Final residual = 0.000161232, No Iterations 1
DICPCG:  Solving for p, Initial residual = 1, Final residual = 0.0093321, No Iterations 55
DILUPBiCGStab:  Solving for Ux, Initial residual = 0.00424229, Final residual = 3.87445e-06, No Iterations 1
DILUPBiCGStab:  Solving for Uy, Initial residual = 0.150809, Final residual = 0.000195576, No Iterations 1
DILUPBiCGStab:  Solving for Uz, Initial residual = 0.436513, Final residual = 0.000224677, No Iterations 1
DICPCG:  Solving for p, Initial residual = 0.0201949, Final residual = 0.000200284, No Iterations 53
DILUPBiCGStab:  Solving for Ux, Initial residual = 0.00377617, Final residual = 2.92269e-06, No Iterations 1
DILUPBiCGStab:  Solving for Uy, Initial residual = 0.111008, Final residual = 0.0001197, No Iterations 1
DILUPBiCGStab:  Solving for Uz, Initial residual = 0.379267, Final residual = 0.000215111, No Iterations 1
DICPCG:  Solving for p, Initial residual = 0.185144, Final residual = 0.00124077, No Iterations 51
Time = 0.0705447 | FilledRatio = 7.05578% | MaxP(MPa) = 5.18301 | AvgViscosity = 10 | Courant = 0.203216

Courant = 0.150164 | dt = 0.005
DILUPBiCGStab:  Solving for alpha, Initial residual = 0.0331094, Final residual = 3.54745e-06, No Iterations 1
DILUPBiCGStab:  Solving for Ux, Initial residual = 0.0057012, Final residual = 4.6428e-06, No Iterations 1
DILUPBiCGStab:  Solving for Uy, Initial residual = 0.455913, Final residual = 0.000410453, No Iterations 1
DILUPBiCGStab:  Solving for Uz, Initial residual = 0.482399, Final residual = 0.000302355, No Iterations 1
DICPCG:  Solving for p, Initial residual = 0.0272095, Final residual = 0.000261068, No Iterations 50
DILUPBiCGStab:  Solving for Ux, Initial residual = 0.00782871, Final residual = 6.30111e-06, No Iterations 1
DILUPBiCGStab:  Solving for Uy, Initial residual = 0.342213, Final residual = 0.000306829, No Iterations 1
DILUPBiCGStab:  Solving for Uz, Initial residual = 0.368074, Final residual = 0.000250529, No Iterations 1
DICPCG:  Solving for p, Initial residual = 0.0694426, Final residual = 0.000410692, No Iterations 53
DILUPBiCGStab:  Solving for Ux, Initial residual = 0.0126109, Final residual = 1.01188e-05, No Iterations 1
DILUPBiCGStab:  Solving for Uy, Initial residual = 0.778108, Final residual = 0.000685977, No Iterations 1
DILUPBiCGStab:  Solving for Uz, Initial residual = 0.522861, Final residual = 0.000392819, No Iterations 1
DICPCG:  Solving for p, Initial residual = 0.0354797, Final residual = 0.00027701, No Iterations 53
Time = 0.0755447 | FilledRatio = 7.35621% | MaxP(MPa) = 0 | AvgViscosity = 10 | Courant = 0.150164

Courant = 0.203207 | dt = 0.005
DILUPBiCGStab:  Solving for alpha, Initial residual = 0.031968, Final residual = 6.53157e-06, No Iterations 1
DILUPBiCGStab:  Solving for Ux, Initial residual = 0.00370289, Final residual = 5.40456e-06, No Iterations 1
DILUPBiCGStab:  Solving for Uy, Initial residual = 0.490475, Final residual = 0.000234174, No Iterations 1
DILUPBiCGStab:  Solving for Uz, Initial residual = 0.376446, Final residual = 0.000168933, No Iterations 1
DICPCG:  Solving for p, Initial residual = 1, Final residual = 0.00931294, No Iterations 55
DILUPBiCGStab:  Solving for Ux, Initial residual = 0.0042423, Final residual = 3.87434e-06, No Iterations 1
DILUPBiCGStab:  Solving for Uy, Initial residual = 0.150369, Final residual = 0.00019477, No Iterations 1
DILUPBiCGStab:  Solving for Uz, Initial residual = 0.435842, Final residual = 0.000227103, No Iterations 1
DICPCG:  Solving for p, Initial residual = 0.0201835, Final residual = 0.000199306, No Iterations 53
DILUPBiCGStab:  Solving for Ux, Initial residual = 0.00377667, Final residual = 2.92317e-06, No Iterations 1
DILUPBiCGStab:  Solving for Uy, Initial residual = 0.108495, Final residual = 0.000117079, No Iterations 1
DILUPBiCGStab:  Solving for Uz, Initial residual = 0.376713, Final residual = 0.000212634, No Iterations 1
DICPCG:  Solving for p, Initial residual = 0.18494, Final residual = 0.00121018, No Iterations 51
Time = 0.0805447 | FilledRatio = 7.66514% | MaxP(MPa) = 5.18352 | AvgViscosity = 10 | Courant = 0.203207

Courant = 0.150163 | dt = 0.005
DILUPBiCGStab:  Solving for alpha, Initial residual = 0.0308747, Final residual = 3.11855e-06, No Iterations 1
DILUPBiCGStab:  Solving for Ux, Initial residual = 0.00570194, Final residual = 4.64337e-06, No Iterations 1
DILUPBiCGStab:  Solving for Uy, Initial residual = 0.458389, Final residual = 0.000412236, No Iterations 1
DILUPBiCGStab:  Solving for Uz, Initial residual = 0.484047, Final residual = 0.000301828, No Iterations 1
DICPCG:  Solving for p, Initial residual = 0.0271794, Final residual = 0.00025915, No Iterations 50
DILUPBiCGStab:  Solving for Ux, Initial residual = 0.00782972, Final residual = 6.30193e-06, No Iterations 1
DILUPBiCGStab:  Solving for Uy, Initial residual = 0.343383, Final residual = 0.000307697, No Iterations 1
DILUPBiCGStab:  Solving for Uz, Initial residual = 0.367311, Final residual = 0.000247236, No Iterations 1
DICPCG:  Solving for p, Initial residual = 0.0693583, Final residual = 0.000408224, No Iterations 53
DILUPBiCGStab:  Solving for Ux, Initial residual = 0.0126126, Final residual = 1.01202e-05, No Iterations 1
DILUPBiCGStab:  Solving for Uy, Initial residual = 0.777814, Final residual = 0.000685597, No Iterations 1
DILUPBiCGStab:  Solving for Uz, Initial residual = 0.519518, Final residual = 0.000384629, No Iterations 1
DICPCG:  Solving for p, Initial residual = 0.0354429, Final residual = 0.000277663, No Iterations 53
Time = 0.0855447 | FilledRatio = 7.96558% | MaxP(MPa) = 0 | AvgViscosity = 10 | Courant = 0.150163

Courant = 0.203207 | dt = 0.005
DILUPBiCGStab:  Solving for alpha, Initial residual = 0.0300093, Final residual = 5.80957e-06, No Iterations 1
DILUPBiCGStab:  Solving for Ux, Initial residual = 0.00370341, Final residual = 5.40506e-06, No Iterations 1
DILUPBiCGStab:  Solving for Uy, Initial residual = 0.490299, Final residual = 0.000233421, No Iterations 1
DILUPBiCGStab:  Solving for Uz, Initial residual = 0.37381, Final residual = 0.000167995, No Iterations 1
DICPCG:  Solving for p, Initial residual = 1, Final residual = 0.00932094, No Iterations 55
DILUPBiCGStab:  Solving for Ux, Initial residual = 0.00424228, Final residual = 3.87435e-06, No Iterations 1
DILUPBiCGStab:  Solving for Uy, Initial residual = 0.150621, Final residual = 0.00019511, No Iterations 1
DILUPBiCGStab:  Solving for Uz, Initial residual = 0.436156, Final residual = 0.000226311, No Iterations 1
DICPCG:  Solving for p, Initial residual = 0.0201871, Final residual = 0.000199979, No Iterations 53
DILUPBiCGStab:  Solving for Ux, Initial residual = 0.00377646, Final residual = 2.92298e-06, No Iterations 1
DILUPBiCGStab:  Solving for Uy, Initial residual = 0.109859, Final residual = 0.000118512, No Iterations 1
DILUPBiCGStab:  Solving for Uz, Initial residual = 0.37739, Final residual = 0.000213152, No Iterations 1
DICPCG:  Solving for p, Initial residual = 0.185035, Final residual = 0.00123273, No Iterations 51
Time = 0.0905447 | FilledRatio = 8.27452% | MaxP(MPa) = 5.18329 | AvgViscosity = 10 | Courant = 0.203207

Courant = 0.150164 | dt = 0.005
DILUPBiCGStab:  Solving for alpha, Initial residual = 0.0289483, Final residual = 2.76743e-06, No Iterations 1
DILUPBiCGStab:  Solving for Ux, Initial residual = 0.00570162, Final residual = 4.64312e-06, No Iterations 1
DILUPBiCGStab:  Solving for Uy, Initial residual = 0.456779, Final residual = 0.000411209, No Iterations 1
DILUPBiCGStab:  Solving for Uz, Initial residual = 0.481862, Final residual = 0.000300827, No Iterations 1
DICPCG:  Solving for p, Initial residual = 0.0271962, Final residual = 0.00026173, No Iterations 50
DILUPBiCGStab:  Solving for Ux, Initial residual = 0.00782928, Final residual = 6.30157e-06, No Iterations 1
DILUPBiCGStab:  Solving for Uy, Initial residual = 0.342987, Final residual = 0.000307501, No Iterations 1
DILUPBiCGStab:  Solving for Uz, Initial residual = 0.366918, Final residual = 0.000247783, No Iterations 1
DICPCG:  Solving for p, Initial residual = 0.0694061, Final residual = 0.000411849, No Iterations 53
DILUPBiCGStab:  Solving for Ux, Initial residual = 0.0126118, Final residual = 1.01196e-05, No Iterations 1
DILUPBiCGStab:  Solving for Uy, Initial residual = 0.777553, Final residual = 0.000685494, No Iterations 1
DILUPBiCGStab:  Solving for Uz, Initial residual = 0.520497, Final residual = 0.000387255, No Iterations 1
DICPCG:  Solving for p, Initial residual = 0.0354642, Final residual = 0.000278475, No Iterations 53
Time = 0.0955447 | FilledRatio = 8.57495% | MaxP(MPa) = 0 | AvgViscosity = 10 | Courant = 0.150164

Courant = 0.203208 | dt = 0.005
DILUPBiCGStab:  Solving for alpha, Initial residual = 0.0285329, Final residual = 5.21344e-06, No Iterations 1
DILUPBiCGStab:  Solving for Ux, Initial residual = 0.00370319, Final residual = 5.40485e-06, No Iterations 1
DILUPBiCGStab:  Solving for Uy, Initial residual = 0.490153, Final residual = 0.00023363, No Iterations 1
DILUPBiCGStab:  Solving for Uz, Initial residual = 0.373648, Final residual = 0.000167841, No Iterations 1
DICPCG:  Solving for p, Initial residual = 1, Final residual = 0.00931711, No Iterations 55
DILUPBiCGStab:  Solving for Ux, Initial residual = 0.0042423, Final residual = 3.87436e-06, No Iterations 1
DILUPBiCGStab:  Solving for Uy, Initial residual = 0.150538, Final residual = 0.000195116, No Iterations 1
DILUPBiCGStab:  Solving for Uz, Initial residual = 0.436144, Final residual = 0.000226523, No Iterations 1
DICPCG:  Solving for p, Initial residual = 0.0201864, Final residual = 0.00019956, No Iterations 53
DILUPBiCGStab:  Solving for Ux, Initial residual = 0.00377659, Final residual = 2.92309e-06, No Iterations 1
DILUPBiCGStab:  Solving for Uy, Initial residual = 0.109066, Final residual = 0.00011769, No Iterations 1
DILUPBiCGStab:  Solving for Uz, Initial residual = 0.37747, Final residual = 0.000213075, No Iterations 1
DICPCG:  Solving for p, Initial residual = 0.184988, Final residual = 0.001219, No Iterations 51
Time = 0.100545 | FilledRatio = 8.88389% | MaxP(MPa) = 5.18345 | AvgViscosity = 10 | Courant = 0.203208

Courant = 0.150163 | dt = 0.005
DILUPBiCGStab:  Solving for alpha, Initial residual = 0.0272515, Final residual = 2.47589e-06, No Iterations 1
DILUPBiCGStab:  Solving for Ux, Initial residual = 0.00570183, Final residual = 4.64329e-06, No Iterations 1
DILUPBiCGStab:  Solving for Uy, Initial residual = 0.457387, Final residual = 0.00041149, No Iterations 1
DILUPBiCGStab:  Solving for Uz, Initial residual = 0.48354, Final residual = 0.00030169, No Iterations 1
DICPCG:  Solving for p, Initial residual = 0.0271889, Final residual = 0.000260032, No Iterations 50
DILUPBiCGStab:  Solving for Ux, Initial residual = 0.00782961, Final residual = 6.30184e-06, No Iterations 1
DILUPBiCGStab:  Solving for Uy, Initial residual = 0.343162, Final residual = 0.000307558, No Iterations 1
DILUPBiCGStab:  Solving for Uz, Initial residual = 0.367604, Final residual = 0.000247943, No Iterations 1
DICPCG:  Solving for p, Initial residual = 0.0693843, Final residual = 0.000410034, No Iterations 53
DILUPBiCGStab:  Solving for Ux, Initial residual = 0.0126124, Final residual = 1.012e-05, No Iterations 1
DILUPBiCGStab:  Solving for Uy, Initial residual = 0.777732, Final residual = 0.000685572, No Iterations 1
DILUPBiCGStab:  Solving for Uz, Initial residual = 0.520478, Final residual = 0.000386589, No Iterations 1
DICPCG:  Solving for p, Initial residual = 0.0354569, Final residual = 0.000278346, No Iterations 53
Time = 0.105545 | FilledRatio = 9.17978% | MaxP(MPa) = 0 | AvgViscosity = 10 | Courant = 0.150163

Courant = 0.203208 | dt = 0.005
DILUPBiCGStab:  Solving for alpha, Initial residual = 0.0271231, Final residual = 4.71825e-06, No Iterations 1
DILUPBiCGStab:  Solving for Ux, Initial residual = 0.0037034, Final residual = 5.40504e-06, No Iterations 1
DILUPBiCGStab:  Solving for Uy, Initial residual = 0.490045, Final residual = 0.000233419, No Iterations 1
DILUPBiCGStab:  Solving for Uz, Initial residual = 0.373542, Final residual = 0.000167801, No Iterations 1
DICPCG:  Solving for p, Initial residual = 1, Final residual = 0.00931966, No Iterations 55
DILUPBiCGStab:  Solving for Ux, Initial residual = 0.0042423, Final residual = 3.87437e-06, No Iterations 1
DILUPBiCGStab:  Solving for Uy, Initial residual = 0.150613, Final residual = 0.000195135, No Iterations 1
DILUPBiCGStab:  Solving for Uz, Initial residual = 0.436066, Final residual = 0.000226395, No Iterations 1
DICPCG:  Solving for p, Initial residual = 0.0201866, Final residual = 0.000199844, No Iterations 53
DILUPBiCGStab:  Solving for Ux, Initial residual = 0.00377652, Final residual = 2.92303e-06, No Iterations 1
DILUPBiCGStab:  Solving for Uy, Initial residual = 0.109491, Final residual = 0.000118134, No Iterations 1
DILUPBiCGStab:  Solving for Uz, Initial residual = 0.377406, Final residual = 0.000213135, No Iterations 1
DICPCG:  Solving for p, Initial residual = 0.185013, Final residual = 0.0012279, No Iterations 51
Time = 0.110545 | FilledRatio = 9.48685% | MaxP(MPa) = 5.18336 | AvgViscosity = 10 | Courant = 0.203208

Courant = 0.150163 | dt = 0.005
DILUPBiCGStab:  Solving for alpha, Initial residual = 0.0257897, Final residual = 2.23889e-06, No Iterations 1
DILUPBiCGStab:  Solving for Ux, Initial residual = 0.00570172, Final residual = 4.6432e-06, No Iterations 1
DILUPBiCGStab:  Solving for Uy, Initial residual = 0.457055, Final residual = 0.000411382, No Iterations 1
DILUPBiCGStab:  Solving for Uz, Initial residual = 0.482438, Final residual = 0.000301149, No Iterations 1
DICPCG:  Solving for p, Initial residual = 0.0271934, Final residual = 0.000261261, No Iterations 50
DILUPBiCGStab:  Solving for Ux, Initial residual = 0.00782942, Final residual = 6.30169e-06, No Iterations 1
DILUPBiCGStab:  Solving for Uy, Initial residual = 0.343124, Final residual = 0.000307597, No Iterations 1
DILUPBiCGStab:  Solving for Uz, Initial residual = 0.367072, Final residual = 0.000247784, No Iterations 1
DICPCG:  Solving for p, Initial residual = 0.0693981, Final residual = 0.000411439, No Iterations 53
DILUPBiCGStab:  Solving for Ux, Initial residual = 0.0126121, Final residual = 1.01198e-05, No Iterations 1
DILUPBiCGStab:  Solving for Uy, Initial residual = 0.777503, Final residual = 0.000685433, No Iterations 1
DILUPBiCGStab:  Solving for Uz, Initial residual = 0.520458, Final residual = 0.000386946, No Iterations 1
DICPCG:  Solving for p, Initial residual = 0.0354614, Final residual = 0.000278472, No Iterations 53
Time = 0.115545 | FilledRatio = 9.7655% | MaxP(MPa) = 0 | AvgViscosity = 10 | Courant = 0.150163

Courant = 0.203209 | dt = 0.005
DILUPBiCGStab:  Solving for alpha, Initial residual = 0.0257939, Final residual = 4.32898e-06, No Iterations 1
DILUPBiCGStab:  Solving for Ux, Initial residual = 0.00370328, Final residual = 5.40494e-06, No Iterations 1
DILUPBiCGStab:  Solving for Uy, Initial residual = 0.490145, Final residual = 0.000233539, No Iterations 1
DILUPBiCGStab:  Solving for Uz, Initial residual = 0.373658, Final residual = 0.000167853, No Iterations 1
DICPCG:  Solving for p, Initial residual = 1, Final residual = 0.00931788, No Iterations 55
DILUPBiCGStab:  Solving for Ux, Initial residual = 0.0042423, Final residual = 3.87436e-06, No Iterations 1
DILUPBiCGStab:  Solving for Uy, Initial residual = 0.15059, Final residual = 0.00019518, No Iterations 1
DILUPBiCGStab:  Solving for Uz, Initial residual = 0.436132, Final residual = 0.000226494, No Iterations 1
DICPCG:  Solving for p, Initial residual = 0.0201865, Final residual = 0.000199659, No Iterations 53
DILUPBiCGStab:  Solving for Ux, Initial residual = 0.00377656, Final residual = 2.92307e-06, No Iterations 1
DILUPBiCGStab:  Solving for Uy, Initial residual = 0.109249, Final residual = 0.000117882, No Iterations 1
DILUPBiCGStab:  Solving for Uz, Initial residual = 0.377453, Final residual = 0.000213087, No Iterations 1
DICPCG:  Solving for p, Initial residual = 0.184997, Final residual = 0.00122246, No Iterations 51
Time = 0.120545 | FilledRatio = 10.0612% | MaxP(MPa) = 5.18341 | AvgViscosity = 10 | Courant = 0.203209

Courant = 0.150163 | dt = 0.005
DILUPBiCGStab:  Solving for alpha, Initial residual = 0.0246042, Final residual = 2.059e-06, No Iterations 1
DILUPBiCGStab:  Solving for Ux, Initial residual = 0.00570179, Final residual = 4.64325e-06, No Iterations 1
DILUPBiCGStab:  Solving for Uy, Initial residual = 0.457091, Final residual = 0.000411288, No Iterations 1
DILUPBiCGStab:  Solving for Uz, Initial residual = 0.48314, Final residual = 0.000301489, No Iterations 1
DICPCG:  Solving for p, Initial residual = 0.0271907, Final residual = 0.000260471, No Iterations 50
DILUPBiCGStab:  Solving for Ux, Initial residual = 0.00782954, Final residual = 6.30178e-06, No Iterations 1
DILUPBiCGStab:  Solving for Uy, Initial residual = 0.343124, Final residual = 0.000307549, No Iterations 1
DILUPBiCGStab:  Solving for Uz, Initial residual = 0.367435, Final residual = 0.00024788, No Iterations 1
DICPCG:  Solving for p, Initial residual = 0.0693895, Final residual = 0.000410606, No Iterations 53
DILUPBiCGStab:  Solving for Ux, Initial residual = 0.0126123, Final residual = 1.01199e-05, No Iterations 1
DILUPBiCGStab:  Solving for Uy, Initial residual = 0.777685, Final residual = 0.00068555, No Iterations 1
DILUPBiCGStab:  Solving for Uz, Initial residual = 0.520471, Final residual = 0.000386716, No Iterations 1
DICPCG:  Solving for p, Initial residual = 0.0354588, Final residual = 0.000278472, No Iterations 53
Time = 0.125545 | FilledRatio = 10.3316% | MaxP(MPa) = 0 | AvgViscosity = 10 | Courant = 0.150163

Courant = 0.203208 | dt = 0.005
DILUPBiCGStab:  Solving for alpha, Initial residual = 0.0246574, Final residual = 4.01743e-06, No Iterations 1
DILUPBiCGStab:  Solving for Ux, Initial residual = 0.00370336, Final residual = 5.40501e-06, No Iterations 1
DILUPBiCGStab:  Solving for Uy, Initial residual = 0.490003, Final residual = 0.000233433, No Iterations 1
DILUPBiCGStab:  Solving for Uz, Initial residual = 0.373544, Final residual = 0.000167801, No Iterations 1
DICPCG:  Solving for p, Initial residual = 1, Final residual = 0.00931904, No Iterations 55
DILUPBiCGStab:  Solving for Ux, Initial residual = 0.00424231, Final residual = 3.87437e-06, No Iterations 1
DILUPBiCGStab:  Solving for Uy, Initial residual = 0.150605, Final residual = 0.000195147, No Iterations 1
DILUPBiCGStab:  Solving for Uz, Initial residual = 0.436092, Final residual = 0.000226437, No Iterations 1
DICPCG:  Solving for p, Initial residual = 0.0201865, Final residual = 0.000199781, No Iterations 53
DILUPBiCGStab:  Solving for Ux, Initial residual = 0.00377654, Final residual = 2.92304e-06, No Iterations 1
DILUPBiCGStab:  Solving for Uy, Initial residual = 0.10938, Final residual = 0.000118019, No Iterations 1
DILUPBiCGStab:  Solving for Uz, Initial residual = 0.377433, Final residual = 0.000213142, No Iterations 1
DICPCG:  Solving for p, Initial residual = 0.185008, Final residual = 0.00122595, No Iterations 51
Time = 0.130545 | FilledRatio = 10.6253% | MaxP(MPa) = 5.18338 | AvgViscosity = 10 | Courant = 0.203208

Courant = 0.150163 | dt = 0.005
DILUPBiCGStab:  Solving for alpha, Initial residual = 0.0235353, Final residual = 1.90843e-06, No Iterations 1
DILUPBiCGStab:  Solving for Ux, Initial residual = 0.00570175, Final residual = 4.64322e-06, No Iterations 1
DILUPBiCGStab:  Solving for Uy, Initial residual = 0.457127, Final residual = 0.000411408, No Iterations 1
DILUPBiCGStab:  Solving for Uz, Initial residual = 0.482695, Final residual = 0.000301297, No Iterations 1
DICPCG:  Solving for p, Initial residual = 0.0271925, Final residual = 0.000261013, No Iterations 50
DILUPBiCGStab:  Solving for Ux, Initial residual = 0.00782947, Final residual = 6.30173e-06, No Iterations 1
DILUPBiCGStab:  Solving for Uy, Initial residual = 0.343147, Final residual = 0.000307604, No Iterations 1
DILUPBiCGStab:  Solving for Uz, Initial residual = 0.367201, Final residual = 0.000247845, No Iterations 1
DICPCG:  Solving for p, Initial residual = 0.0693955, Final residual = 0.000411207, No Iterations 53
DILUPBiCGStab:  Solving for Ux, Initial residual = 0.0126122, Final residual = 1.01198e-05, No Iterations 1
DILUPBiCGStab:  Solving for Uy, Initial residual = 0.777519, Final residual = 0.000685435, No Iterations 1
DILUPBiCGStab:  Solving for Uz, Initial residual = 0.520466, Final residual = 0.000386908, No Iterations 1
DICPCG:  Solving for p, Initial residual = 0.0354607, Final residual = 0.000278472, No Iterations 53
Time = 0.135545 | FilledRatio = 10.8941% | MaxP(MPa) = 0 | AvgViscosity = 10 | Courant = 0.150163

Courant = 0.203209 | dt = 0.005
DILUPBiCGStab:  Solving for alpha, Initial residual = 0.0236036, Final residual = 3.74454e-06, No Iterations 1
DILUPBiCGStab:  Solving for Ux, Initial residual = 0.00370331, Final residual = 5.40496e-06, No Iterations 1
DILUPBiCGStab:  Solving for Uy, Initial residual = 0.490123, Final residual = 0.000233507, No Iterations 1
DILUPBiCGStab:  Solving for Uz, Initial residual = 0.373643, Final residual = 0.000167845, No Iterations 1
DICPCG:  Solving for p, Initial residual = 1, Final residual = 0.00931825, No Iterations 55
DILUPBiCGStab:  Solving for Ux, Initial residual = 0.00424231, Final residual = 3.87437e-06, No Iterations 1
DILUPBiCGStab:  Solving for Uy, Initial residual = 0.150604, Final residual = 0.000195186, No Iterations 1
DILUPBiCGStab:  Solving for Uz, Initial residual = 0.436117, Final residual = 0.000226471, No Iterations 1
DICPCG:  Solving for p, Initial residual = 0.0201865, Final residual = 0.000199702, No Iterations 53
DILUPBiCGStab:  Solving for Ux, Initial residual = 0.00377655, Final residual = 2.92306e-06, No Iterations 1
DILUPBiCGStab:  Solving for Uy, Initial residual = 0.109307, Final residual = 0.000117942, No Iterations 1
DILUPBiCGStab:  Solving for Uz, Initial residual = 0.377441, Final residual = 0.000213092, No Iterations 1
DICPCG:  Solving for p, Initial residual = 0.185, Final residual = 0.00122379, No Iterations 51
Time = 0.140545 | FilledRatio = 11.1865% | MaxP(MPa) = 5.1834 | AvgViscosity = 10 | Courant = 0.203209

Courant = 0.150163 | dt = 0.005
DILUPBiCGStab:  Solving for alpha, Initial residual = 0.0225759, Final residual = 1.78097e-06, No Iterations 1
DILUPBiCGStab:  Solving for Ux, Initial residual = 0.00570178, Final residual = 4.64324e-06, No Iterations 1
DILUPBiCGStab:  Solving for Uy, Initial residual = 0.457036, Final residual = 0.000411266, No Iterations 1
DILUPBiCGStab:  Solving for Uz, Initial residual = 0.48297, Final residual = 0.0003014, No Iterations 1
DICPCG:  Solving for p, Initial residual = 0.0271913, Final residual = 0.000260661, No Iterations 50
DILUPBiCGStab:  Solving for Ux, Initial residual = 0.00782952, Final residual = 6.30177e-06, No Iterations 1
DILUPBiCGStab:  Solving for Uy, Initial residual = 0.343121, Final residual = 0.000307558, No Iterations 1
DILUPBiCGStab:  Solving for Uz, Initial residual = 0.367349, Final residual = 0.000247851, No Iterations 1
DICPCG:  Solving for p, Initial residual = 0.0693914, Final residual = 0.000410832, No Iterations 53
DILUPBiCGStab:  Solving for Ux, Initial residual = 0.0126123, Final residual = 1.01199e-05, No Iterations 1
DILUPBiCGStab:  Solving for Uy, Initial residual = 0.777654, Final residual = 0.000685533, No Iterations 1
DILUPBiCGStab:  Solving for Uz, Initial residual = 0.520463, Final residual = 0.000386758, No Iterations 1
DICPCG:  Solving for p, Initial residual = 0.0354595, Final residual = 0.000278502, No Iterations 53
Time = 0.145545 | FilledRatio = 11.4553% | MaxP(MPa) = 0 | AvgViscosity = 10 | Courant = 0.150163

Courant = 0.203209 | dt = 0.005
DILUPBiCGStab:  Solving for alpha, Initial residual = 0.0226781, Final residual = 3.51201e-06, No Iterations 1
DILUPBiCGStab:  Solving for Ux, Initial residual = 0.00370335, Final residual = 5.405e-06, No Iterations 1
DILUPBiCGStab:  Solving for Uy, Initial residual = 0.490009, Final residual = 0.000233445, No Iterations 1
DILUPBiCGStab:  Solving for Uz, Initial residual = 0.373552, Final residual = 0.000167805, No Iterations 1
DICPCG:  Solving for p, Initial residual = 1, Final residual = 0.00931878, No Iterations 55
DILUPBiCGStab:  Solving for Ux, Initial residual = 0.00424231, Final residual = 3.87437e-06, No Iterations 1
DILUPBiCGStab:  Solving for Uy, Initial residual = 0.150602, Final residual = 0.000195155, No Iterations 1
DILUPBiCGStab:  Solving for Uz, Initial residual = 0.436104, Final residual = 0.000226454, No Iterations 1
DICPCG:  Solving for p, Initial residual = 0.0201865, Final residual = 0.000199754, No Iterations 53
DILUPBiCGStab:  Solving for Ux, Initial residual = 0.00377654, Final residual = 2.92305e-06, No Iterations 1
DILUPBiCGStab:  Solving for Uy, Initial residual = 0.109346, Final residual = 0.000117984, No Iterations 1
DILUPBiCGStab:  Solving for Uz, Initial residual = 0.377444, Final residual = 0.00021314, No Iterations 1
DICPCG:  Solving for p, Initial residual = 0.185005, Final residual = 0.00122516, No Iterations 51
Time = 0.150545 | FilledRatio = 11.7476% | MaxP(MPa) = 5.18339 | AvgViscosity = 10 | Courant = 0.203209

Courant = 0.150163 | dt = 0.005
DILUPBiCGStab:  Solving for alpha, Initial residual = 0.0217237, Final residual = 1.6703e-06, No Iterations 1
DILUPBiCGStab:  Solving for Ux, Initial residual = 0.00570176, Final residual = 4.64323e-06, No Iterations 1
DILUPBiCGStab:  Solving for Uy, Initial residual = 0.457135, Final residual = 0.000411396, No Iterations 1
DILUPBiCGStab:  Solving for Uz, Initial residual = 0.482802, Final residual = 0.000301353, No Iterations 1
DICPCG:  Solving for p, Initial residual = 0.0271922, Final residual = 0.000260897, No Iterations 50
DILUPBiCGStab:  Solving for Ux, Initial residual = 0.00782949, Final residual = 6.30174e-06, No Iterations 1
DILUPBiCGStab:  Solving for Uy, Initial residual = 0.343147, Final residual = 0.000307596, No Iterations 1
DILUPBiCGStab:  Solving for Uz, Initial residual = 0.367259, Final residual = 0.000247865, No Iterations 1
DICPCG:  Solving for p, Initial residual = 0.0693944, Final residual = 0.000411091, No Iterations 53
DILUPBiCGStab:  Solving for Ux, Initial residual = 0.0126122, Final residual = 1.01199e-05, No Iterations 1
DILUPBiCGStab:  Solving for Uy, Initial residual = 0.777539, Final residual = 0.000685447, No Iterations 1
DILUPBiCGStab:  Solving for Uz, Initial residual = 0.520471, Final residual = 0.000386884, No Iterations 1
DICPCG:  Solving for p, Initial residual = 0.0354604, Final residual = 0.000278474, No Iterations 53
Time = 0.155545 | FilledRatio = 12.0158% | MaxP(MPa) = 0 | AvgViscosity = 10 | Courant = 0.150163

Courant = 0.203209 | dt = 0.005
DILUPBiCGStab:  Solving for alpha, Initial residual = 0.0218336, Final residual = 3.30615e-06, No Iterations 1
DILUPBiCGStab:  Solving for Ux, Initial residual = 0.00370332, Final residual = 5.40498e-06, No Iterations 1
DILUPBiCGStab:  Solving for Uy, Initial residual = 0.490105, Final residual = 0.000233493, No Iterations 1
DILUPBiCGStab:  Solving for Uz, Initial residual = 0.373628, Final residual = 0.000167838, No Iterations 1
DICPCG:  Solving for p, Initial residual = 1, Final residual = 0.00931842, No Iterations 55
DILUPBiCGStab:  Solving for Ux, Initial residual = 0.00424231, Final residual = 3.87437e-06, No Iterations 1
DILUPBiCGStab:  Solving for Uy, Initial residual = 0.150608, Final residual = 0.000195183, No Iterations 1
DILUPBiCGStab:  Solving for Uz, Initial residual = 0.43611, Final residual = 0.000226461, No Iterations 1
DICPCG:  Solving for p, Initial residual = 0.0201865, Final residual = 0.000199719, No Iterations 53
DILUPBiCGStab:  Solving for Ux, Initial residual = 0.00377655, Final residual = 2.92306e-06, No Iterations 1
DILUPBiCGStab:  Solving for Uy, Initial residual = 0.109325, Final residual = 0.000117961, No Iterations 1
DILUPBiCGStab:  Solving for Uz, Initial residual = 0.377437, Final residual = 0.000213098, No Iterations 1
DICPCG:  Solving for p, Initial residual = 0.185002, Final residual = 0.00122431, No Iterations 51
Time = 0.160545 | FilledRatio = 12.3061% | MaxP(MPa) = 5.1834 | AvgViscosity = 10 | Courant = 0.203209

Courant = 0.150163 | dt = 0.005
DILUPBiCGStab:  Solving for alpha, Initial residual = 0.0209431, Final residual = 1.57356e-06, No Iterations 1
DILUPBiCGStab:  Solving for Ux, Initial residual = 0.00570177, Final residual = 4.64324e-06, No Iterations 1
DILUPBiCGStab:  Solving for Uy, Initial residual = 0.457034, Final residual = 0.000411277, No Iterations 1
DILUPBiCGStab:  Solving for Uz, Initial residual = 0.482904, Final residual = 0.000301369, No Iterations 1
DICPCG:  Solving for p, Initial residual = 0.0271916, Final residual = 0.000260742, No Iterations 50
DILUPBiCGStab:  Solving for Ux, Initial residual = 0.00782951, Final residual = 6.30176e-06, No Iterations 1
DILUPBiCGStab:  Solving for Uy, Initial residual = 0.343126, Final residual = 0.000307566, No Iterations 1
DILUPBiCGStab:  Solving for Uz, Initial residual = 0.367312, Final residual = 0.000247843, No Iterations 1
DICPCG:  Solving for p, Initial residual = 0.0693923, Final residual = 0.000410925, No Iterations 53
DILUPBiCGStab:  Solving for Ux, Initial residual = 0.0126123, Final residual = 1.01199e-05, No Iterations 1
DILUPBiCGStab:  Solving for Uy, Initial residual = 0.777634, Final residual = 0.00068552, No Iterations 1
DILUPBiCGStab:  Solving for Uz, Initial residual = 0.520461, Final residual = 0.000386784, No Iterations 1
DICPCG:  Solving for p, Initial residual = 0.0354597, Final residual = 0.000278504, No Iterations 53
Time = 0.165545 | FilledRatio = 12.5735% | MaxP(MPa) = 0 | AvgViscosity = 10 | Courant = 0.150163

Courant = 0.203209 | dt = 0.005
DILUPBiCGStab:  Solving for alpha, Initial residual = 0.0211071, Final residual = 3.1262e-06, No Iterations 1
DILUPBiCGStab:  Solving for Ux, Initial residual = 0.00370334, Final residual = 5.40499e-06, No Iterations 1
DILUPBiCGStab:  Solving for Uy, Initial residual = 0.490022, Final residual = 0.000233453, No Iterations 1
DILUPBiCGStab:  Solving for Uz, Initial residual = 0.373565, Final residual = 0.000167811, No Iterations 1
DICPCG:  Solving for p, Initial residual = 1, Final residual = 0.00931867, No Iterations 55
DILUPBiCGStab:  Solving for Ux, Initial residual = 0.00424231, Final residual = 3.87437e-06, No Iterations 1
DILUPBiCGStab:  Solving for Uy, Initial residual = 0.150601, Final residual = 0.000195161, No Iterations 1
DILUPBiCGStab:  Solving for Uz, Initial residual = 0.436109, Final residual = 0.00022646, No Iterations 1
DICPCG:  Solving for p, Initial residual = 0.0201865, Final residual = 0.000199742, No Iterations 53
DILUPBiCGStab:  Solving for Ux, Initial residual = 0.00377654, Final residual = 2.92305e-06, No Iterations 1
DILUPBiCGStab:  Solving for Uy, Initial residual = 0.109336, Final residual = 0.000117973, No Iterations 1
DILUPBiCGStab:  Solving for Uz, Initial residual = 0.377446, Final residual = 0.000213133, No Iterations 1
DICPCG:  Solving for p, Initial residual = 0.185004, Final residual = 0.00122485, No Iterations 51
Time = 0.170545 | FilledRatio = 12.8638% | MaxP(MPa) = 5.18339 | AvgViscosity = 10 | Courant = 0.203209

Courant = 0.150163 | dt = 0.005
DILUPBiCGStab:  Solving for alpha, Initial residual = 0.0202429, Final residual = 1.48939e-06, No Iterations 1
DILUPBiCGStab:  Solving for Ux, Initial residual = 0.00570176, Final residual = 4.64323e-06, No Iterations 1
DILUPBiCGStab:  Solving for Uy, Initial residual = 0.457126, Final residual = 0.00041138, No Iterations 1
DILUPBiCGStab:  Solving for Uz, Initial residual = 0.482843, Final residual = 0.00030137, No Iterations 1
DICPCG:  Solving for p, Initial residual = 0.027192, Final residual = 0.000260845, No Iterations 50
DILUPBiCGStab:  Solving for Ux, Initial residual = 0.0078295, Final residual = 6.30175e-06, No Iterations 1
DILUPBiCGStab:  Solving for Uy, Initial residual = 0.343143, Final residual = 0.00030759, No Iterations 1
DILUPBiCGStab:  Solving for Uz, Initial residual = 0.367282, Final residual = 0.000247867, No Iterations 1
DICPCG:  Solving for p, Initial residual = 0.0693938, Final residual = 0.000411036, No Iterations 53
DILUPBiCGStab:  Solving for Ux, Initial residual = 0.0126122, Final residual = 1.01199e-05, No Iterations 1
DILUPBiCGStab:  Solving for Uy, Initial residual = 0.777554, Final residual = 0.000685457, No Iterations 1
DILUPBiCGStab:  Solving for Uz, Initial residual = 0.520471, Final residual = 0.000386864, No Iterations 1
DICPCG:  Solving for p, Initial residual = 0.0354602, Final residual = 0.000278478, No Iterations 53
Time = 0.175545 | FilledRatio = 13.1311% | MaxP(MPa) = 0 | AvgViscosity = 10 | Courant = 0.150163

Courant = 0.203209 | dt = 0.005
DILUPBiCGStab:  Solving for alpha, Initial residual = 0.0204595, Final residual = 2.96673e-06, No Iterations 1
DILUPBiCGStab:  Solving for Ux, Initial residual = 0.00370333, Final residual = 5.40498e-06, No Iterations 1
DILUPBiCGStab:  Solving for Uy, Initial residual = 0.490092, Final residual = 0.000233486, No Iterations 1
DILUPBiCGStab:  Solving for Uz, Initial residual = 0.373615, Final residual = 0.000167832, No Iterations 1
DICPCG:  Solving for p, Initial residual = 1, Final residual = 0.0093185, No Iterations 55
DILUPBiCGStab:  Solving for Ux, Initial residual = 0.00424231, Final residual = 3.87437e-06, No Iterations 1
DILUPBiCGStab:  Solving for Uy, Initial residual = 0.150608, Final residual = 0.000195179, No Iterations 1
DILUPBiCGStab:  Solving for Uz, Initial residual = 0.436108, Final residual = 0.000226458, No Iterations 1
DICPCG:  Solving for p, Initial residual = 0.0201865, Final residual = 0.000199727, No Iterations 53
DILUPBiCGStab:  Solving for Ux, Initial residual = 0.00377655, Final residual = 2.92305e-06, No Iterations 1
DILUPBiCGStab:  Solving for Uy, Initial residual = 0.10933, Final residual = 0.000117967, No Iterations 1
DILUPBiCGStab:  Solving for Uz, Initial residual = 0.377437, Final residual = 0.000213105, No Iterations 1
DICPCG:  Solving for p, Initial residual = 0.185002, Final residual = 0.00122451, No Iterations 51
Time = 0.180545 | FilledRatio = 13.4214% | MaxP(MPa) = 5.1834 | AvgViscosity = 10 | Courant = 0.203209

Courant = 0.150163 | dt = 0.005
DILUPBiCGStab:  Solving for alpha, Initial residual = 0.0195742, Final residual = 1.41261e-06, No Iterations 1
DILUPBiCGStab:  Solving for Ux, Initial residual = 0.00570177, Final residual = 4.64324e-06, No Iterations 1
DILUPBiCGStab:  Solving for Uy, Initial residual = 0.457043, Final residual = 0.000411292, No Iterations 1
DILUPBiCGStab:  Solving for Uz, Initial residual = 0.482878, Final residual = 0.000301361, No Iterations 1
DICPCG:  Solving for p, Initial residual = 0.0271917, Final residual = 0.000260778, No Iterations 50
DILUPBiCGStab:  Solving for Ux, Initial residual = 0.00782951, Final residual = 6.30176e-06, No Iterations 1
DILUPBiCGStab:  Solving for Uy, Initial residual = 0.343129, Final residual = 0.000307572, No Iterations 1
DILUPBiCGStab:  Solving for Uz, Initial residual = 0.367298, Final residual = 0.000247844, No Iterations 1
DICPCG:  Solving for p, Initial residual = 0.0693927, Final residual = 0.000410964, No Iterations 53
DILUPBiCGStab:  Solving for Ux, Initial residual = 0.0126122, Final residual = 1.01199e-05, No Iterations 1
DILUPBiCGStab:  Solving for Uy, Initial residual = 0.777621, Final residual = 0.00068551, No Iterations 1
DILUPBiCGStab:  Solving for Uz, Initial residual = 0.520461, Final residual = 0.000386802, No Iterations 1
DICPCG:  Solving for p, Initial residual = 0.0354599, Final residual = 0.000278501, No Iterations 53
Time = 0.185545 | FilledRatio = 13.6888% | MaxP(MPa) = 0 | AvgViscosity = 10 | Courant = 0.150163

Courant = 0.203209 | dt = 0.005
DILUPBiCGStab:  Solving for alpha, Initial residual = 0.0198389, Final residual = 2.8231e-06, No Iterations 1
DILUPBiCGStab:  Solving for Ux, Initial residual = 0.00370334, Final residual = 5.40499e-06, No Iterations 1
DILUPBiCGStab:  Solving for Uy, Initial residual = 0.490032, Final residual = 0.000233458, No Iterations 1
DILUPBiCGStab:  Solving for Uz, Initial residual = 0.373575, Final residual = 0.000167815, No Iterations 1
DICPCG:  Solving for p, Initial residual = 1, Final residual = 0.00931861, No Iterations 55
DILUPBiCGStab:  Solving for Ux, Initial residual = 0.00424231, Final residual = 3.87437e-06, No Iterations 1
DILUPBiCGStab:  Solving for Uy, Initial residual = 0.150601, Final residual = 0.000195164, No Iterations 1
DILUPBiCGStab:  Solving for Uz, Initial residual = 0.43611, Final residual = 0.000226461, No Iterations 1
DICPCG:  Solving for p, Initial residual = 0.0201865, Final residual = 0.000199737, No Iterations 53
DILUPBiCGStab:  Solving for Ux, Initial residual = 0.00377655, Final residual = 2.92305e-06, No Iterations 1
DILUPBiCGStab:  Solving for Uy, Initial residual = 0.109333, Final residual = 0.00011797, No Iterations 1
DILUPBiCGStab:  Solving for Uz, Initial residual = 0.377445, Final residual = 0.000213127, No Iterations 1
DICPCG:  Solving for p, Initial residual = 0.185004, Final residual = 0.00122472, No Iterations 51
Time = 0.190545 | FilledRatio = 13.9791% | MaxP(MPa) = 5.18339 | AvgViscosity = 10 | Courant = 0.203209

Courant = 0.150163 | dt = 0.005
DILUPBiCGStab:  Solving for alpha, Initial residual = 0.0189602, Final residual = 1.34415e-06, No Iterations 1
DILUPBiCGStab:  Solving for Ux, Initial residual = 0.00570176, Final residual = 4.64323e-06, No Iterations 1
DILUPBiCGStab:  Solving for Uy, Initial residual = 0.457116, Final residual = 0.000411366, No Iterations 1
DILUPBiCGStab:  Solving for Uz, Initial residual = 0.482858, Final residual = 0.000301374, No Iterations 1
DICPCG:  Solving for p, Initial residual = 0.0271919, Final residual = 0.000260822, No Iterations 50
DILUPBiCGStab:  Solving for Ux, Initial residual = 0.0078295, Final residual = 6.30175e-06, No Iterations 1
DILUPBiCGStab:  Solving for Uy, Initial residual = 0.34314, Final residual = 0.000307585, No Iterations 1
DILUPBiCGStab:  Solving for Uz, Initial residual = 0.36729, Final residual = 0.000247865, No Iterations 1
DICPCG:  Solving for p, Initial residual = 0.0693935, Final residual = 0.000411012, No Iterations 53
DILUPBiCGStab:  Solving for Ux, Initial residual = 0.0126122, Final residual = 1.01199e-05, No Iterations 1
DILUPBiCGStab:  Solving for Uy, Initial residual = 0.777565, Final residual = 0.000685465, No Iterations 1
DILUPBiCGStab:  Solving for Uz, Initial residual = 0.52047, Final residual = 0.00038685, No Iterations 1
DICPCG:  Solving for p, Initial residual = 0.0354601, Final residual = 0.000278482, No Iterations 53
Time = 0.195545 | FilledRatio = 14.2465% | MaxP(MPa) = 0 | AvgViscosity = 10 | Courant = 0.150163

Courant = 0.203209 | dt = 0.005
DILUPBiCGStab:  Solving for alpha, Initial residual = 0.0192695, Final residual = 2.69574e-06, No Iterations 1
DILUPBiCGStab:  Solving for Ux, Initial residual = 0.00370333, Final residual = 5.40498e-06, No Iterations 1
DILUPBiCGStab:  Solving for Uy, Initial residual = 0.490083, Final residual = 0.000233482, No Iterations 1
DILUPBiCGStab:  Solving for Uz, Initial residual = 0.373606, Final residual = 0.000167828, No Iterations 1
DICPCG:  Solving for p, Initial residual = 1, Final residual = 0.00931853, No Iterations 55
DILUPBiCGStab:  Solving for Ux, Initial residual = 0.00424231, Final residual = 3.87437e-06, No Iterations 1
DILUPBiCGStab:  Solving for Uy, Initial residual = 0.150608, Final residual = 0.000195177, No Iterations 1
DILUPBiCGStab:  Solving for Uz, Initial residual = 0.436108, Final residual = 0.000226458, No Iterations 1
DICPCG:  Solving for p, Initial residual = 0.0201865, Final residual = 0.000199731, No Iterations 53
DILUPBiCGStab:  Solving for Ux, Initial residual = 0.00377655, Final residual = 2.92305e-06, No Iterations 1
DILUPBiCGStab:  Solving for Uy, Initial residual = 0.109332, Final residual = 0.000117968, No Iterations 1
DILUPBiCGStab:  Solving for Uz, Initial residual = 0.377438, Final residual = 0.000213109, No Iterations 1
DICPCG:  Solving for p, Initial residual = 0.185003, Final residual = 0.0012246, No Iterations 51
Time = 0.200545 | FilledRatio = 14.5368% | MaxP(MPa) = 5.18339 | AvgViscosity = 10 | Courant = 0.203209

Courant = 0.150163 | dt = 0.005
DILUPBiCGStab:  Solving for alpha, Initial residual = 0.0184129, Final residual = 1.28416e-06, No Iterations 1
DILUPBiCGStab:  Solving for Ux, Initial residual = 0.00570177, Final residual = 4.64324e-06, No Iterations 1
DILUPBiCGStab:  Solving for Uy, Initial residual = 0.457053, Final residual = 0.000411304, No Iterations 1
DILUPBiCGStab:  Solving for Uz, Initial residual = 0.482869, Final residual = 0.000301361, No Iterations 1
DICPCG:  Solving for p, Initial residual = 0.0271918, Final residual = 0.000260793, No Iterations 50
DILUPBiCGStab:  Solving for Ux, Initial residual = 0.0078295, Final residual = 6.30175e-06, No Iterations 1
DILUPBiCGStab:  Solving for Uy, Initial residual = 0.343132, Final residual = 0.000307575, No Iterations 1
DILUPBiCGStab:  Solving for Uz, Initial residual = 0.367293, Final residual = 0.000247847, No Iterations 1
DICPCG:  Solving for p, Initial residual = 0.069393, Final residual = 0.000410981, No Iterations 53
DILUPBiCGStab:  Solving for Ux, Initial residual = 0.0126122, Final residual = 1.01199e-05, No Iterations 1
DILUPBiCGStab:  Solving for Uy, Initial residual = 0.777612, Final residual = 0.000685503, No Iterations 1
DILUPBiCGStab:  Solving for Uz, Initial residual = 0.520463, Final residual = 0.000386813, No Iterations 1
DICPCG:  Solving for p, Initial residual = 0.0354599, Final residual = 0.000278498, No Iterations 53
Time = 0.205545 | FilledRatio = 14.8041% | MaxP(MPa) = 0 | AvgViscosity = 10 | Courant = 0.150163

Courant = 0.203209 | dt = 0.005
DILUPBiCGStab:  Solving for alpha, Initial residual = 0.0187472, Final residual = 2.58255e-06, No Iterations 1
DILUPBiCGStab:  Solving for Ux, Initial residual = 0.00370333, Final residual = 5.40498e-06, No Iterations 1
DILUPBiCGStab:  Solving for Uy, Initial residual = 0.49004, Final residual = 0.000233462, No Iterations 1
DILUPBiCGStab:  Solving for Uz, Initial residual = 0.373582, Final residual = 0.000167818, No Iterations 1
DICPCG:  Solving for p, Initial residual = 1, Final residual = 0.00931859, No Iterations 55
DILUPBiCGStab:  Solving for Ux, Initial residual = 0.00424231, Final residual = 3.87437e-06, No Iterations 1
DILUPBiCGStab:  Solving for Uy, Initial residual = 0.150602, Final residual = 0.000195167, No Iterations 1
DILUPBiCGStab:  Solving for Uz, Initial residual = 0.43611, Final residual = 0.000226461, No Iterations 1
DICPCG:  Solving for p, Initial residual = 0.0201865, Final residual = 0.000199735, No Iterations 53
DILUPBiCGStab:  Solving for Ux, Initial residual = 0.00377655, Final residual = 2.92305e-06, No Iterations 1
DILUPBiCGStab:  Solving for Uy, Initial residual = 0.109332, Final residual = 0.000117969, No Iterations 1
DILUPBiCGStab:  Solving for Uz, Initial residual = 0.377444, Final residual = 0.000213123, No Iterations 1
DICPCG:  Solving for p, Initial residual = 0.185004, Final residual = 0.00122467, No Iterations 51
Time = 0.210545 | FilledRatio = 15.0944% | MaxP(MPa) = 5.18339 | AvgViscosity = 10 | Courant = 0.203209

Courant = 0.150163 | dt = 0.005
DILUPBiCGStab:  Solving for alpha, Initial residual = 0.0178976, Final residual = 1.22955e-06, No Iterations 1
DILUPBiCGStab:  Solving for Ux, Initial residual = 0.00570176, Final residual = 4.64323e-06, No Iterations 1
DILUPBiCGStab:  Solving for Uy, Initial residual = 0.457107, Final residual = 0.000411356, No Iterations 1
DILUPBiCGStab:  Solving for Uz, Initial residual = 0.482864, Final residual = 0.000301373, No Iterations 1
DICPCG:  Solving for p, Initial residual = 0.0271919, Final residual = 0.000260812, No Iterations 50
DILUPBiCGStab:  Solving for Ux, Initial residual = 0.0078295, Final residual = 6.30175e-06, No Iterations 1
DILUPBiCGStab:  Solving for Uy, Initial residual = 0.343138, Final residual = 0.000307583, No Iterations 1
DILUPBiCGStab:  Solving for Uz, Initial residual = 0.367293, Final residual = 0.000247862, No Iterations 1
DICPCG:  Solving for p, Initial residual = 0.0693933, Final residual = 0.000411001, No Iterations 53
DILUPBiCGStab:  Solving for Ux, Initial residual = 0.0126122, Final residual = 1.01199e-05, No Iterations 1
DILUPBiCGStab:  Solving for Uy, Initial residual = 0.777573, Final residual = 0.000685471, No Iterations 1
DILUPBiCGStab:  Solving for Uz, Initial residual = 0.520469, Final residual = 0.000386842, No Iterations 1
[...]
DILUPBiCGStab:  Solving for Uz, Initial residual = 0.520466, Final residual = 0.000386829, No Iterations 1
DICPCG:  Solving for p, Initial residual = 0.03546, Final residual = 0.000278491, No Iterations 53
Time = 2.935545 | FilledRatio = 66.9849% | MaxP(MPa) = 0 | AvgViscosity = 10 | Courant = 0.150163

Courant = 0.203209 | dt = 0.005
DILUPBiCGStab:  Solving for alpha, Initial residual = 0.0069855, Final residual = 1.23111e-06, No Iterations 1
DILUPBiCGStab:  Solving for Ux, Initial residual = 0.00370333, Final residual = 5.40498e-06, No Iterations 1
DILUPBiCGStab:  Solving for Uy, Initial residual = 0.49006, Final residual = 0.000233471, No Iterations 1
DILUPBiCGStab:  Solving for Uz, Initial residual = 0.373593, Final residual = 0.000167823, No Iterations 1
DICPCG:  Solving for p, Initial residual = 1, Final residual = 0.00931857, No Iterations 55
DILUPBiCGStab:  Solving for Ux, Initial residual = 0.00424231, Final residual = 3.87437e-06, No Iterations 1
DILUPBiCGStab:  Solving for Uy, Initial residual = 0.150605, Final residual = 0.000195171, No Iterations 1
DILUPBiCGStab:  Solving for Uz, Initial residual = 0.436109, Final residual = 0.000226459, No Iterations 1
DICPCG:  Solving for p, Initial residual = 0.0201865, Final residual = 0.000199733, No Iterations 53
DILUPBiCGStab:  Solving for Ux, Initial residual = 0.00377655, Final residual = 2.92305e-06, No Iterations 1
DILUPBiCGStab:  Solving for Uy, Initial residual = 0.109332, Final residual = 0.000117969, No Iterations 1
DILUPBiCGStab:  Solving for Uz, Initial residual = 0.377441, Final residual = 0.000213117, No Iterations 1
DICPCG:  Solving for p, Initial residual = 0.185003, Final residual = 0.00122464, No Iterations 51
Time = 2.940545 | FilledRatio = 66.9882% | MaxP(MPa) = 5.18339 | AvgViscosity = 10 | Courant = 0.203209

Courant = 0.150163 | dt = 0.005
DILUPBiCGStab:  Solving for alpha, Initial residual = 0.00706841, Final residual = 5.78427e-07, No Iterations 1
DILUPBiCGStab:  Solving for Ux, Initial residual = 0.00570176, Final residual = 4.64323e-06, No Iterations 1
DILUPBiCGStab:  Solving for Uy, Initial residual = 0.457082, Final residual = 0.000411332, No Iterations 1
DILUPBiCGStab:  Solving for Uz, Initial residual = 0.482865, Final residual = 0.000301367, No Iterations 1
DICPCG:  Solving for p, Initial residual = 0.0271918, Final residual = 0.000260804, No Iterations 50
DILUPBiCGStab:  Solving for Ux, Initial residual = 0.0078295, Final residual = 6.30175e-06, No Iterations 1
DILUPBiCGStab:  Solving for Uy, Initial residual = 0.343135, Final residual = 0.00030758, No Iterations 1
DILUPBiCGStab:  Solving for Uz, Initial residual = 0.367293, Final residual = 0.000247855, No Iterations 1
DICPCG:  Solving for p, Initial residual = 0.0693932, Final residual = 0.000410993, No Iterations 53
DILUPBiCGStab:  Solving for Ux, Initial residual = 0.0126122, Final residual = 1.01199e-05, No Iterations 1
DILUPBiCGStab:  Solving for Uy, Initial residual = 0.77759, Final residual = 0.000685486, No Iterations 1
DILUPBiCGStab:  Solving for Uz, Initial residual = 0.520466, Final residual = 0.000386829, No Iterations 1
DICPCG:  Solving for p, Initial residual = 0.03546, Final residual = 0.000278491, No Iterations 53
Time = 2.945545 | FilledRatio = 66.9953% | MaxP(MPa) = 0 | AvgViscosity = 10 | Courant = 0.150163

Courant = 0.203209 | dt = 0.005
DILUPBiCGStab:  Solving for alpha, Initial residual = 0.00698639, Final residual = 1.2313e-06, No Iterations 1
DILUPBiCGStab:  Solving for Ux, Initial residual = 0.00370333, Final residual = 5.40498e-06, No Iterations 1
DILUPBiCGStab:  Solving for Uy, Initial residual = 0.49006, Final residual = 0.000233471, No Iterations 1
DILUPBiCGStab:  Solving for Uz, Initial residual = 0.373593, Final residual = 0.000167823, No Iterations 1
DICPCG:  Solving for p, Initial residual = 1, Final residual = 0.00931857, No Iterations 55
DILUPBiCGStab:  Solving for Ux, Initial residual = 0.00424231, Final residual = 3.87437e-06, No Iterations 1
DILUPBiCGStab:  Solving for Uy, Initial residual = 0.150605, Final residual = 0.000195171, No Iterations 1
DILUPBiCGStab:  Solving for Uz, Initial residual = 0.436109, Final residual = 0.000226459, No Iterations 1
DICPCG:  Solving for p, Initial residual = 0.0201865, Final residual = 0.000199733, No Iterations 53
DILUPBiCGStab:  Solving for Ux, Initial residual = 0.00377655, Final residual = 2.92305e-06, No Iterations 1
DILUPBiCGStab:  Solving for Uy, Initial residual = 0.109332, Final residual = 0.000117969, No Iterations 1
DILUPBiCGStab:  Solving for Uz, Initial residual = 0.377441, Final residual = 0.000213117, No Iterations 1
DICPCG:  Solving for p, Initial residual = 0.185003, Final residual = 0.00122464, No Iterations 51
Time = 2.950545 | FilledRatio = 66.9986% | MaxP(MPa) = 5.18339 | AvgViscosity = 10 | Courant = 0.203209

Courant = 0.150163 | dt = 0.005
DILUPBiCGStab:  Solving for alpha, Initial residual = 0.00706864, Final residual = 5.78511e-07, No Iterations 1
DILUPBiCGStab:  Solving for Ux, Initial residual = 0.00570176, Final residual = 4.64323e-06, No Iterations 1
DILUPBiCGStab:  Solving for Uy, Initial residual = 0.457082, Final residual = 0.000411332, No Iterations 1
DILUPBiCGStab:  Solving for Uz, Initial residual = 0.482865, Final residual = 0.000301367, No Iterations 1
DICPCG:  Solving for p, Initial residual = 0.0271918, Final residual = 0.000260804, No Iterations 50
DILUPBiCGStab:  Solving for Ux, Initial residual = 0.0078295, Final residual = 6.30175e-06, No Iterations 1
DILUPBiCGStab:  Solving for Uy, Initial residual = 0.343135, Final residual = 0.00030758, No Iterations 1
DILUPBiCGStab:  Solving for Uz, Initial residual = 0.367293, Final residual = 0.000247855, No Iterations 1
DICPCG:  Solving for p, Initial residual = 0.0693932, Final residual = 0.000410993, No Iterations 53
DILUPBiCGStab:  Solving for Ux, Initial residual = 0.0126122, Final residual = 1.01199e-05, No Iterations 1
DILUPBiCGStab:  Solving for Uy, Initial residual = 0.77759, Final residual = 0.000685486, No Iterations 1
DILUPBiCGStab:  Solving for Uz, Initial residual = 0.520466, Final residual = 0.000386829, No Iterations 1
DICPCG:  Solving for p, Initial residual = 0.03546, Final residual = 0.000278491, No Iterations 53
Time = 2.955545 | FilledRatio = 67.0056% | MaxP(MPa) = 0 | AvgViscosity = 10 | Courant = 0.150163

Courant = 0.203209 | dt = 0.005
DILUPBiCGStab:  Solving for alpha, Initial residual = 0.00698728, Final residual = 1.2315e-06, No Iterations 1
DILUPBiCGStab:  Solving for Ux, Initial residual = 0.00370333, Final residual = 5.40498e-06, No Iterations 1
DILUPBiCGStab:  Solving for Uy, Initial residual = 0.49006, Final residual = 0.000233471, No Iterations 1
DILUPBiCGStab:  Solving for Uz, Initial residual = 0.373593, Final residual = 0.000167823, No Iterations 1
DICPCG:  Solving for p, Initial residual = 1, Final residual = 0.00931857, No Iterations 55
DILUPBiCGStab:  Solving for Ux, Initial residual = 0.00424231, Final residual = 3.87437e-06, No Iterations 1
DILUPBiCGStab:  Solving for Uy, Initial residual = 0.150605, Final residual = 0.000195171, No Iterations 1
DILUPBiCGStab:  Solving for Uz, Initial residual = 0.436109, Final residual = 0.000226459, No Iterations 1
DICPCG:  Solving for p, Initial residual = 0.0201865, Final residual = 0.000199733, No Iterations 53
DILUPBiCGStab:  Solving for Ux, Initial residual = 0.00377655, Final residual = 2.92305e-06, No Iterations 1
DILUPBiCGStab:  Solving for Uy, Initial residual = 0.109332, Final residual = 0.000117969, No Iterations 1
DILUPBiCGStab:  Solving for Uz, Initial residual = 0.377441, Final residual = 0.000213117, No Iterations 1
DICPCG:  Solving for p, Initial residual = 0.185003, Final residual = 0.00122464, No Iterations 51
Time = 2.960545 | FilledRatio = 67.0089% | MaxP(MPa) = 5.18339 | AvgViscosity = 10 | Courant = 0.203209

Courant = 0.150163 | dt = 0.005
DILUPBiCGStab:  Solving for alpha, Initial residual = 0.00706887, Final residual = 5.78595e-07, No Iterations 1
DILUPBiCGStab:  Solving for Ux, Initial residual = 0.00570176, Final residual = 4.64323e-06, No Iterations 1
DILUPBiCGStab:  Solving for Uy, Initial residual = 0.457082, Final residual = 0.000411332, No Iterations 1
DILUPBiCGStab:  Solving for Uz, Initial residual = 0.482865, Final residual = 0.000301367, No Iterations 1
DICPCG:  Solving for p, Initial residual = 0.0271918, Final residual = 0.000260804, No Iterations 50
DILUPBiCGStab:  Solving for Ux, Initial residual = 0.0078295, Final residual = 6.30175e-06, No Iterations 1
DILUPBiCGStab:  Solving for Uy, Initial residual = 0.343135, Final residual = 0.00030758, No Iterations 1
DILUPBiCGStab:  Solving for Uz, Initial residual = 0.367293, Final residual = 0.000247855, No Iterations 1
DICPCG:  Solving for p, Initial residual = 0.0693932, Final residual = 0.000410993, No Iterations 53
DILUPBiCGStab:  Solving for Ux, Initial residual = 0.0126122, Final residual = 1.01199e-05, No Iterations 1
DILUPBiCGStab:  Solving for Uy, Initial residual = 0.77759, Final residual = 0.000685486, No Iterations 1
DILUPBiCGStab:  Solving for Uz, Initial residual = 0.520466, Final residual = 0.000386829, No Iterations 1
DICPCG:  Solving for p, Initial residual = 0.03546, Final residual = 0.000278491, No Iterations 53
Time = 2.965545 | FilledRatio = 67.0159% | MaxP(MPa) = 0 | AvgViscosity = 10 | Courant = 0.150163

Courant = 0.203209 | dt = 0.005
DILUPBiCGStab:  Solving for alpha, Initial residual = 0.00698819, Final residual = 1.23169e-06, No Iterations 1
DILUPBiCGStab:  Solving for Ux, Initial residual = 0.00370333, Final residual = 5.40498e-06, No Iterations 1
DILUPBiCGStab:  Solving for Uy, Initial residual = 0.49006, Final residual = 0.000233471, No Iterations 1
DILUPBiCGStab:  Solving for Uz, Initial residual = 0.373593, Final residual = 0.000167823, No Iterations 1
DICPCG:  Solving for p, Initial residual = 1, Final residual = 0.00931857, No Iterations 55
DILUPBiCGStab:  Solving for Ux, Initial residual = 0.00424231, Final residual = 3.87437e-06, No Iterations 1
DILUPBiCGStab:  Solving for Uy, Initial residual = 0.150605, Final residual = 0.000195171, No Iterations 1
DILUPBiCGStab:  Solving for Uz, Initial residual = 0.436109, Final residual = 0.000226459, No Iterations 1
DICPCG:  Solving for p, Initial residual = 0.0201865, Final residual = 0.000199733, No Iterations 53
DILUPBiCGStab:  Solving for Ux, Initial residual = 0.00377655, Final residual = 2.92305e-06, No Iterations 1
DILUPBiCGStab:  Solving for Uy, Initial residual = 0.109332, Final residual = 0.000117969, No Iterations 1
DILUPBiCGStab:  Solving for Uz, Initial residual = 0.377441, Final residual = 0.000213117, No Iterations 1
DICPCG:  Solving for p, Initial residual = 0.185003, Final residual = 0.00122464, No Iterations 51
Time = 2.970545 | FilledRatio = 67.0192% | MaxP(MPa) = 5.18339 | AvgViscosity = 10 | Courant = 0.203209

Courant = 0.150163 | dt = 0.005
DILUPBiCGStab:  Solving for alpha, Initial residual = 0.0070691, Final residual = 5.78679e-07, No Iterations 1
DILUPBiCGStab:  Solving for Ux, Initial residual = 0.00570176, Final residual = 4.64323e-06, No Iterations 1
DILUPBiCGStab:  Solving for Uy, Initial residual = 0.457082, Final residual = 0.000411332, No Iterations 1
DILUPBiCGStab:  Solving for Uz, Initial residual = 0.482865, Final residual = 0.000301367, No Iterations 1
DICPCG:  Solving for p, Initial residual = 0.0271918, Final residual = 0.000260804, No Iterations 50
DILUPBiCGStab:  Solving for Ux, Initial residual = 0.0078295, Final residual = 6.30175e-06, No Iterations 1
DILUPBiCGStab:  Solving for Uy, Initial residual = 0.343135, Final residual = 0.00030758, No Iterations 1
DILUPBiCGStab:  Solving for Uz, Initial residual = 0.367293, Final residual = 0.000247855, No Iterations 1
DICPCG:  Solving for p, Initial residual = 0.0693932, Final residual = 0.000410993, No Iterations 53
DILUPBiCGStab:  Solving for Ux, Initial residual = 0.0126122, Final residual = 1.01199e-05, No Iterations 1
DILUPBiCGStab:  Solving for Uy, Initial residual = 0.77759, Final residual = 0.000685486, No Iterations 1
DILUPBiCGStab:  Solving for Uz, Initial residual = 0.520466, Final residual = 0.000386829, No Iterations 1
DICPCG:  Solving for p, Initial residual = 0.03546, Final residual = 0.000278491, No Iterations 53
Time = 2.975545 | FilledRatio = 67.0261% | MaxP(MPa) = 0 | AvgViscosity = 10 | Courant = 0.150163

Courant = 0.203209 | dt = 0.005
DILUPBiCGStab:  Solving for alpha, Initial residual = 0.00698909, Final residual = 1.23189e-06, No Iterations 1
DILUPBiCGStab:  Solving for Ux, Initial residual = 0.00370333, Final residual = 5.40498e-06, No Iterations 1
DILUPBiCGStab:  Solving for Uy, Initial residual = 0.49006, Final residual = 0.000233471, No Iterations 1
DILUPBiCGStab:  Solving for Uz, Initial residual = 0.373593, Final residual = 0.000167823, No Iterations 1
DICPCG:  Solving for p, Initial residual = 1, Final residual = 0.00931857, No Iterations 55
DILUPBiCGStab:  Solving for Ux, Initial residual = 0.00424231, Final residual = 3.87437e-06, No Iterations 1
DILUPBiCGStab:  Solving for Uy, Initial residual = 0.150605, Final residual = 0.000195171, No Iterations 1
DILUPBiCGStab:  Solving for Uz, Initial residual = 0.436109, Final residual = 0.000226459, No Iterations 1
DICPCG:  Solving for p, Initial residual = 0.0201865, Final residual = 0.000199733, No Iterations 53
DILUPBiCGStab:  Solving for Ux, Initial residual = 0.00377655, Final residual = 2.92305e-06, No Iterations 1
DILUPBiCGStab:  Solving for Uy, Initial residual = 0.109332, Final residual = 0.000117969, No Iterations 1
DILUPBiCGStab:  Solving for Uz, Initial residual = 0.377441, Final residual = 0.000213117, No Iterations 1
DICPCG:  Solving for p, Initial residual = 0.185003, Final residual = 0.00122464, No Iterations 51
Time = 2.980545 | FilledRatio = 67.0293% | MaxP(MPa) = 5.18339 | AvgViscosity = 10 | Courant = 0.203209

Courant = 0.150163 | dt = 0.005
DILUPBiCGStab:  Solving for alpha, Initial residual = 0.00706933, Final residual = 5.78764e-07, No Iterations 1
DILUPBiCGStab:  Solving for Ux, Initial residual = 0.00570176, Final residual = 4.64323e-06, No Iterations 1
DILUPBiCGStab:  Solving for Uy, Initial residual = 0.457082, Final residual = 0.000411332, No Iterations 1
DILUPBiCGStab:  Solving for Uz, Initial residual = 0.482865, Final residual = 0.000301367, No Iterations 1
DICPCG:  Solving for p, Initial residual = 0.0271918, Final residual = 0.000260804, No Iterations 50
DILUPBiCGStab:  Solving for Ux, Initial residual = 0.0078295, Final residual = 6.30175e-06, No Iterations 1
DILUPBiCGStab:  Solving for Uy, Initial residual = 0.343135, Final residual = 0.00030758, No Iterations 1
DILUPBiCGStab:  Solving for Uz, Initial residual = 0.367293, Final residual = 0.000247855, No Iterations 1
DICPCG:  Solving for p, Initial residual = 0.0693932, Final residual = 0.000410993, No Iterations 53
DILUPBiCGStab:  Solving for Ux, Initial residual = 0.0126122, Final residual = 1.01199e-05, No Iterations 1
DILUPBiCGStab:  Solving for Uy, Initial residual = 0.77759, Final residual = 0.000685486, No Iterations 1
DILUPBiCGStab:  Solving for Uz, Initial residual = 0.520466, Final residual = 0.000386829, No Iterations 1
DICPCG:  Solving for p, Initial residual = 0.03546, Final residual = 0.000278491, No Iterations 53
Time = 2.985545 | FilledRatio = 67.0361% | MaxP(MPa) = 0 | AvgViscosity = 10 | Courant = 0.150163

Courant = 0.203209 | dt = 0.005
DILUPBiCGStab:  Solving for alpha, Initial residual = 0.00699, Final residual = 1.23209e-06, No Iterations 1
DILUPBiCGStab:  Solving for Ux, Initial residual = 0.00370333, Final residual = 5.40498e-06, No Iterations 1
DILUPBiCGStab:  Solving for Uy, Initial residual = 0.49006, Final residual = 0.000233471, No Iterations 1
DILUPBiCGStab:  Solving for Uz, Initial residual = 0.373593, Final residual = 0.000167823, No Iterations 1
DICPCG:  Solving for p, Initial residual = 1, Final residual = 0.00931857, No Iterations 55
DILUPBiCGStab:  Solving for Ux, Initial residual = 0.00424231, Final residual = 3.87437e-06, No Iterations 1
DILUPBiCGStab:  Solving for Uy, Initial residual = 0.150605, Final residual = 0.000195171, No Iterations 1
DILUPBiCGStab:  Solving for Uz, Initial residual = 0.436109, Final residual = 0.000226459, No Iterations 1
DICPCG:  Solving for p, Initial residual = 0.0201865, Final residual = 0.000199733, No Iterations 53
DILUPBiCGStab:  Solving for Ux, Initial residual = 0.00377655, Final residual = 2.92305e-06, No Iterations 1
DILUPBiCGStab:  Solving for Uy, Initial residual = 0.109332, Final residual = 0.000117969, No Iterations 1
DILUPBiCGStab:  Solving for Uz, Initial residual = 0.377441, Final residual = 0.000213117, No Iterations 1
DICPCG:  Solving for p, Initial residual = 0.185003, Final residual = 0.00122464, No Iterations 51
Time = 2.990545 | FilledRatio = 67.0393% | MaxP(MPa) = 5.18339 | AvgViscosity = 10 | Courant = 0.203209

Courant = 0.150163 | dt = 0.005
DILUPBiCGStab:  Solving for alpha, Initial residual = 0.00706957, Final residual = 5.78849e-07, No Iterations 1
DILUPBiCGStab:  Solving for Ux, Initial residual = 0.00570176, Final residual = 4.64323e-06, No Iterations 1
DILUPBiCGStab:  Solving for Uy, Initial residual = 0.457082, Final residual = 0.000411332, No Iterations 1
DILUPBiCGStab:  Solving for Uz, Initial residual = 0.482865, Final residual = 0.000301367, No Iterations 1
DICPCG:  Solving for p, Initial residual = 0.0271918, Final residual = 0.000260804, No Iterations 50
DILUPBiCGStab:  Solving for Ux, Initial residual = 0.0078295, Final residual = 6.30175e-06, No Iterations 1
DILUPBiCGStab:  Solving for Uy, Initial residual = 0.343135, Final residual = 0.00030758, No Iterations 1
DILUPBiCGStab:  Solving for Uz, Initial residual = 0.367293, Final residual = 0.000247855, No Iterations 1
DICPCG:  Solving for p, Initial residual = 0.0693932, Final residual = 0.000410993, No Iterations 53
DILUPBiCGStab:  Solving for Ux, Initial residual = 0.0126122, Final residual = 1.01199e-05, No Iterations 1
DILUPBiCGStab:  Solving for Uy, Initial residual = 0.77759, Final residual = 0.000685486, No Iterations 1
DILUPBiCGStab:  Solving for Uz, Initial residual = 0.520466, Final residual = 0.000386829, No Iterations 1
DICPCG:  Solving for p, Initial residual = 0.03546, Final residual = 0.000278491, No Iterations 53
Time = 2.995545 | FilledRatio = 67.0461% | MaxP(MPa) = 0 | AvgViscosity = 10 | Courant = 0.150163

Courant = 0.203209 | dt = 0.005
DILUPBiCGStab:  Solving for alpha, Initial residual = 0.00699092, Final residual = 1.23229e-06, No Iterations 1
DILUPBiCGStab:  Solving for Ux, Initial residual = 0.00370333, Final residual = 5.40498e-06, No Iterations 1
DILUPBiCGStab:  Solving for Uy, Initial residual = 0.49006, Final residual = 0.000233471, No Iterations 1
DILUPBiCGStab:  Solving for Uz, Initial residual = 0.373593, Final residual = 0.000167823, No Iterations 1
DICPCG:  Solving for p, Initial residual = 1, Final residual = 0.00931857, No Iterations 55
DILUPBiCGStab:  Solving for Ux, Initial residual = 0.00424231, Final residual = 3.87437e-06, No Iterations 1
DILUPBiCGStab:  Solving for Uy, Initial residual = 0.150605, Final residual = 0.000195171, No Iterations 1
DILUPBiCGStab:  Solving for Uz, Initial residual = 0.436109, Final residual = 0.000226459, No Iterations 1
DICPCG:  Solving for p, Initial residual = 0.0201865, Final residual = 0.000199733, No Iterations 53
DILUPBiCGStab:  Solving for Ux, Initial residual = 0.00377655, Final residual = 2.92305e-06, No Iterations 1
DILUPBiCGStab:  Solving for Uy, Initial residual = 0.109332, Final residual = 0.000117969, No Iterations 1
DILUPBiCGStab:  Solving for Uz, Initial residual = 0.377441, Final residual = 0.000213117, No Iterations 1
DICPCG:  Solving for p, Initial residual = 0.185003, Final residual = 0.00122464, No Iterations 51
Time = 3.000545 | FilledRatio = 67.0493% | MaxP(MPa) = 5.18339 | AvgViscosity = 10 | Courant = 0.203209

End.

